version 2
run General-0-20180315-14:24:21-3432
attr configname General
attr datetime 20180315-14:24:21
attr experiment General
attr inifile omnetpp.ini
attr iterationvars ""
attr iterationvarsf ""
attr measurement ""
attr network FatTree
attr processid 3432
attr repetition 0
attr replication #0
attr resultdir results
attr runnumber 0
attr seedset 0
param FatTree.servers[*].production_rate exponential(4s)
param FatTree.servers[*].service_rate exponential(.1s)
param FatTree.edge[*].service_rate exponential(.1s)
param FatTree.aggregate[*].service_rate exponential(.1s)
param FatTree.core[*].service_rate exponential(.1s)
param FatTree.num_vnfs 3
param FatTree.k 6

statistic FatTree Hop_Count:stats
field count 4267346
field mean 11.24490959955
field stddev 1.3527862028005
field min 4
field max 12
field sum 47985920
field sqrsum 547406704
attr interpolationmode none
attr source msg_hop_count
attr title "Hop Count, stats"
statistic FatTree Proc_Core:stats
field count 7246446
field mean 0.13427647013683
field stddev 0.13425115981333
field min 8.731e-09
field max 2.228206898638
field sum 973027.18991713
field sqrsum 261260.04417134
attr interpolationmode none
attr source core_msg_processed
attr title "Queueing Time - Core, stats"
statistic FatTree Proc_Agg:stats
field count 15458296
field mean 0.13732421573042
field stddev 0.13726791047028
field min 1.5902e-08
field max 2.614145894858
field sum 2122798.3747287
field sqrsum 582784.2246621
attr interpolationmode none
attr source agg_msg_processed
attr title "Queueing Time - Aggregate, stats"
statistic FatTree Proc_Edge:stats
field count 16746552
field mean 0.14168946390673
field stddev 0.14163922901919
field min 2.538e-09
field max 2.375277148575
field sum 2372809.9751662
field sqrsum 672165.97318215
attr interpolationmode none
attr source edge_msg_processed
attr title "Queueing Time - Edge, stats"
statistic FatTree Proc_Server:stats
field count 8534700
field mean 0.10527134677014
field stddev 0.10530750502808
field min 4.587e-09
field max 1.947265957682
field sum 898459.36327914
field sqrsum 189229.02790086
attr interpolationmode none
attr source server_msg_processed
attr title "Queueing Time - Server, stats"
statistic FatTree Rec_Core:stats
field count 9
field mean 2.5485351414285
field stddev 0.0024896247540787
field min 2.5454518375231
field max 2.553880894749
field sum 22.936816272856
field sqrsum 58.455331889714
attr interpolationmode none
attr source core_received_count
attr title "Arrival Rate - Core, stats"
statistic FatTree Rec_Agg:stats
field count 18
field mean 2.7182976270914
field stddev 0.0026804523995775
field min 2.713162538655
field max 2.7229558180606
field sum 48.929357287646
field sqrsum 133.00467795214
attr interpolationmode none
attr source agg_received_count
attr title "Arrival Rate - Aggregate, stats"
statistic FatTree Rec_Edge:stats
field count 18
field mean 2.9448346507259
field stddev 0.0033129086386878
field min 2.9389302310139
field max 2.951214561128
field sum 53.007023713066
field sqrsum 156.09710674327
attr interpolationmode none
attr source edge_received_count
attr title "Arrival Rate - Edge, stats"
statistic FatTree Rec_Server:stats
field count 54
field mean 0.50026755334335
field stddev 0.0013598849092519
field min 0.49719409687833
field max 0.50349927224221
field sum 27.014447880541
field sqrsum 13.514549758329
attr interpolationmode none
attr source server_received_count
attr title "Arrival Rate - Server, stats"
statistic FatTree Time_In_System:stats
field count 4267346
field mean 1.4920475579777
field stddev 0.49906319622155
field min 0.027935563803
field max 5.286848228504
field sum 6367083.1783457
field sqrsum 10562833.237799
attr interpolationmode none
attr source completed
attr title "Time in System, stats"

