version 2
run General-0-20180315-14:08:54-2624
attr configname General
attr datetime 20180315-14:08:54
attr experiment General
attr inifile omnetpp.ini
attr iterationvars ""
attr iterationvarsf ""
attr measurement ""
attr network FatTree
attr processid 2624
attr repetition 0
attr replication #0
attr resultdir results
attr runnumber 0
attr seedset 0
param FatTree.servers[*].production_rate exponential(4s)
param FatTree.servers[*].service_rate exponential(.1s)
param FatTree.edge[*].service_rate exponential(.1s)
param FatTree.aggregate[*].service_rate exponential(.1s)
param FatTree.core[*].service_rate exponential(.1s)
param FatTree.num_vnfs 2

statistic FatTree Hop_Count:stats
field count 4232428
field mean 6
field stddev 0
field min 6
field max 6
field sum 25394568
field sqrsum 152367408
attr interpolationmode none
attr source msg_hop_count
attr title "Hop Count, stats"
statistic FatTree Proc_Core:stats
field count 4232428
field mean 0.10525933033533
field stddev 0.10531007577438
field min 1.8859e-08
field max 1.69952070142
field sum 445502.53697248
field sqrsum 93831.811661211
attr interpolationmode none
attr source core_msg_processed
attr title "Queueing Time - Core, stats"
statistic FatTree Proc_Agg:stats
field count 8464856
field mean 0.10526648036611
field stddev 0.10519921205607
field min 1.444e-09
field max 1.679621471513
field sum 891065.59792593
field sqrsum 187478.82482098
attr interpolationmode none
attr source agg_msg_processed
attr title "Queueing Time - Aggregate, stats"
statistic FatTree Proc_Edge:stats
field count 8464857
field mean 0.10516053493413
field stddev 0.10516785303656
field min 1.234e-08
field max 1.675688246291
field sum 890168.89026095
field sqrsum 187234.29145042
attr interpolationmode none
attr source edge_msg_processed
attr title "Queueing Time - Edge, stats"
statistic FatTree Proc_Server:stats
field count 4232428
field mean 0.10264458769643
field stddev 0.10267357886461
field min 5.1968e-08
field max 1.947265957682
field sum 434435.82701481
field sqrsum 89210.15530867
attr interpolationmode none
attr source server_msg_processed
attr title "Queueing Time - Server, stats"
statistic FatTree Rec_Core:stats
field count 1
field mean 0.50019905155386
field stddev -nan
field min 0.50019905155386
field max 0.50019905155386
field sum 0.50019905155386
field sqrsum 0.25019909117538
attr interpolationmode none
attr source core_received_count
attr title "Arrival Rate - Core, stats"
statistic FatTree Rec_Agg:stats
field count 2
field mean 0.50019911064512
field stddev 8.3632559778704e-08
field min 0.50019905155386
field max 0.50019916973639
field sum 1.0003982212902
field sqrsum 0.50039830058035
attr interpolationmode none
attr source agg_received_count
attr title "Arrival Rate - Aggregate, stats"
statistic FatTree Rec_Edge:stats
field count 2
field mean 0.50019911064512
field stddev 8.3632559778704e-08
field min 0.50019905155386
field max 0.50019916973639
field sum 1.0003982212902
field sqrsum 0.50039830058035
attr interpolationmode none
attr source edge_received_count
attr title "Arrival Rate - Edge, stats"
statistic FatTree Rec_Server:stats
field count 2
field mean 0.25009952577693
field stddev 0.00015526872865908
field min 0.24998973420602
field max 0.25020931734784
field sum 0.50019905155386
field sqrsum 0.12509956969607
attr interpolationmode none
attr source server_received_count
attr title "Arrival Rate - Server, stats"
statistic FatTree Time_In_System:stats
field count 4232428
field mean 0.62875795670923
field stddev 0.25680048324528
field min 0.020845501531
field max 3.053277093429
field sum 2661172.781199
field sqrsum 1952347.2575486
attr interpolationmode none
attr source completed
attr title "Time in System, stats"

