version 2
run General-0-20180315-14:10:06-2698
attr configname General
attr datetime 20180315-14:10:06
attr experiment General
attr inifile omnetpp.ini
attr iterationvars ""
attr iterationvarsf ""
attr measurement ""
attr network FatTree
attr processid 2698
attr repetition 0
attr replication #0
attr resultdir results
attr runnumber 0
attr seedset 0
param FatTree.servers[*].production_rate exponential(4s)
param FatTree.servers[*].service_rate exponential(.1s)
param FatTree.edge[*].service_rate exponential(.1s)
param FatTree.aggregate[*].service_rate exponential(.1s)
param FatTree.core[*].service_rate exponential(.1s)
param FatTree.num_vnfs 3

statistic FatTree Hop_Count:stats
field count 2311741
field mean 12
field stddev 0
field min 12
field max 12
field sum 27740892
field sqrsum 332890704
attr interpolationmode none
attr source msg_hop_count
attr title "Hop Count, stats"
statistic FatTree Proc_Core:stats
field count 4623483
field mean 0.11105441528614
field stddev 0.11112819717591
field min 5.215e-09
field max 1.696164242378
field sum 513458.20115039
field sqrsum 114119.38125775
attr interpolationmode none
attr source core_msg_processed
attr title "Queueing Time - Core, stats"
statistic FatTree Proc_Agg:stats
field count 9246966
field mean 0.11111257387255
field stddev 0.1111960364878
field min 2.4354e-08
field max 1.861067938292
field sum 1027454.1927719
field sqrsum 228497.7198679
attr interpolationmode none
attr source agg_msg_processed
attr title "Queueing Time - Aggregate, stats"
statistic FatTree Proc_Edge:stats
field count 9246966
field mean 0.11114404451958
field stddev 0.11116083114056
field min 1.234e-08
field max 1.67382920674
field sum 1027745.200775
field sqrsum 228490.01168671
attr interpolationmode none
attr source edge_msg_processed
attr title "Queueing Time - Edge, stats"
statistic FatTree Proc_Server:stats
field count 4623482
field mean 0.10528718203853
field stddev 0.1053094277087
field min 4.9314e-08
field max 1.907188166536
field sum 486793.39098585
field sqrsum 102527.85803214
attr interpolationmode none
attr source server_msg_processed
attr title "Queueing Time - Server, stats"
statistic FatTree Rec_Core:stats
field count 1
field mean 1.0010448925229
field stddev -nan
field min 1.0010448925229
field max 1.0010448925229
field sum 1.0010448925229
field sqrsum 1.0020908768461
attr interpolationmode none
attr source core_received_count
attr title "Arrival Rate - Core, stats"
statistic FatTree Rec_Agg:stats
field count 2
field mean 1.0010448925229
field stddev 0
field min 1.0010448925229
field max 1.0010448925229
field sum 2.0020897850457
field sqrsum 2.0041817536922
attr interpolationmode none
attr source agg_received_count
attr title "Arrival Rate - Aggregate, stats"
statistic FatTree Rec_Edge:stats
field count 2
field mean 1.0010448925229
field stddev 0
field min 1.0010448925229
field max 1.0010448925229
field sum 2.0020897850457
field sqrsum 2.0041817536922
attr interpolationmode none
attr source edge_received_count
attr title "Arrival Rate - Edge, stats"
statistic FatTree Rec_Server:stats
field count 2
field mean 0.50052233800485
field stddev 0
field min 0.50052233800485
field max 0.50052233800485
field sum 1.0010446760097
field sqrsum 0.50104522168369
attr interpolationmode none
attr source server_received_count
attr title "Arrival Rate - Server, stats"
statistic FatTree Time_In_System:stats
field count 2311741
field mean 1.3217097521969
field stddev 0.39305709154018
field min 0.204493392343
field max 4.260649941799
field sum 3055450.6242534
field sqrsum 4395568.5631332
attr interpolationmode none
attr source completed
attr title "Time in System, stats"

