version 2
run General-0-20180315-14:11:15-2745
attr configname General
attr datetime 20180315-14:11:15
attr experiment General
attr inifile omnetpp.ini
attr iterationvars ""
attr iterationvarsf ""
attr measurement ""
attr network FatTree
attr processid 2745
attr repetition 0
attr replication #0
attr resultdir results
attr runnumber 0
attr seedset 0
param FatTree.servers[*].production_rate exponential(4s)
param FatTree.servers[*].service_rate exponential(.1s)
param FatTree.edge[*].service_rate exponential(.1s)
param FatTree.aggregate[*].service_rate exponential(.1s)
param FatTree.core[*].service_rate exponential(.1s)
param FatTree.num_vnfs 4

statistic FatTree Hop_Count:stats
field count 1582162
field mean 18
field stddev 0
field min 18
field max 18
field sum 28478916
field sqrsum 512620488
attr interpolationmode none
attr source msg_hop_count
attr title "Hop Count, stats"
statistic FatTree Proc_Core:stats
field count 4746489
field mean 0.11764854326523
field stddev 0.11769831617896
field min 1.5902e-08
field max 1.780522806941
field sum 558417.51647446
field sqrsum 131449.60073354
attr interpolationmode none
attr source core_msg_processed
attr title "Queueing Time - Core, stats"
statistic FatTree Proc_Agg:stats
field count 9492978
field mean 0.11772425004381
field stddev 0.11775170032096
field min 4.587e-09
field max 2.015710204865
field sum 1117553.7157324
field sqrsum 263187.69374267
attr interpolationmode none
attr source agg_msg_processed
attr title "Queueing Time - Aggregate, stats"
statistic FatTree Proc_Edge:stats
field count 9492978
field mean 0.11761249026627
field stddev 0.11762720170054
field min 1.234e-08
field max 1.864226962745
field sum 1116492.7826229
field sqrsum 262659.83169593
attr interpolationmode none
attr source edge_msg_processed
attr title "Queueing Time - Edge, stats"
statistic FatTree Proc_Server:stats
field count 4746488
field mean 0.10810039904152
field stddev 0.10810946387687
field min 6.2794e-08
field max 1.67382920674
field sum 513097.24684577
field sqrsum 110941.32524875
attr interpolationmode none
attr source server_msg_processed
attr title "Queueing Time - Server, stats"
statistic FatTree Rec_Core:stats
field count 1
field mean 1.5017414050531
field stddev -nan
field min 1.5017414050531
field max 1.5017414050531
field sum 1.5017414050531
field sqrsum 2.2552272476509
attr interpolationmode none
attr source core_received_count
attr title "Arrival Rate - Core, stats"
statistic FatTree Rec_Agg:stats
field count 2
field mean 1.5017415632481
field stddev 2.2500259981366e-07
field min 1.5017414050531
field max 1.5017417214431
field sum 3.0034831264962
field sqrsum 4.5104554455736
attr interpolationmode none
attr source agg_received_count
attr title "Arrival Rate - Aggregate, stats"
statistic FatTree Rec_Edge:stats
field count 2
field mean 1.5017415632481
field stddev 2.2500259981366e-07
field min 1.5017414050531
field max 1.5017417214431
field sum 3.0034831264962
field sqrsum 4.5104554455736
attr interpolationmode none
attr source edge_received_count
attr title "Arrival Rate - Edge, stats"
statistic FatTree Rec_Server:stats
field count 2
field mean 0.75087054433158
field stddev 9.8437481383294e-06
field min 0.75086358375274
field max 0.75087750491042
field sum 1.5017410886632
field sqrsum 1.1276131487865
attr interpolationmode none
attr source server_received_count
attr title "Arrival Rate - Server, stats"
statistic FatTree Time_In_System:stats
field count 1582162
field mean 2.0892666115343
field stddev 0.53295675100251
field min 0.382161757033
field max 5.892654734738
field sum 3305558.2406383
field sqrsum 7355594.0608849
attr interpolationmode none
attr source completed
attr title "Time in System, stats"

