version 2
run General-0-20180315-14:12:45-2784
attr configname General
attr datetime 20180315-14:12:45
attr experiment General
attr inifile omnetpp.ini
attr iterationvars ""
attr iterationvarsf ""
attr measurement ""
attr network FatTree
attr processid 2784
attr repetition 0
attr replication #0
attr resultdir results
attr runnumber 0
attr seedset 0
param FatTree.servers[*].production_rate exponential(4s)
param FatTree.servers[*].service_rate exponential(.1s)
param FatTree.edge[*].service_rate exponential(.1s)
param FatTree.aggregate[*].service_rate exponential(.1s)
param FatTree.core[*].service_rate exponential(.1s)
param FatTree.num_vnfs 5

statistic FatTree Hop_Count:stats
field count 1228422
field mean 24
field stddev 0
field min 24
field max 24
field sum 29482128
field sqrsum 707571072
attr interpolationmode none
attr source msg_hop_count
attr title "Hop Count, stats"
statistic FatTree Proc_Core:stats
field count 4913695
field mean 0.12501636056601
field stddev 0.12507916381256
field min 2.538e-09
field max 1.849596029769
field sum 614292.2658314
field sqrsum 153670.32962946
attr interpolationmode none
attr source core_msg_processed
attr title "Queueing Time - Core, stats"
statistic FatTree Proc_Agg:stats
field count 9827390
field mean 0.12504808868247
field stddev 0.12507800733934
field min 5.215e-09
field max 2.171635421673
field sum 1228896.3362372
field sqrsum 307415.80307858
attr interpolationmode none
attr source agg_msg_processed
attr title "Queueing Time - Aggregate, stats"
statistic FatTree Proc_Edge:stats
field count 9827390
field mean 0.12498698492971
field stddev 0.12499400741126
field min 4.587e-09
field max 1.936338326547
field sum 1228295.8458284
field sqrsum 307059.22497454
attr interpolationmode none
attr source edge_msg_processed
attr title "Queueing Time - Edge, stats"
statistic FatTree Proc_Server:stats
field count 4913694
field mean 0.11115716265848
field stddev 0.11115414784179
field min 3.0268e-08
field max 1.82719866731
field sum 546192.28321201
field sqrsum 121423.0632858
attr interpolationmode none
attr source server_msg_processed
attr title "Queueing Time - Server, stats"
statistic FatTree Rec_Core:stats
field count 1
field mean 2.0001818933117
field stddev -nan
field min 2.0001818933117
field max 2.0001818933117
field sum 2.0001818933117
field sqrsum 4.000727606332
attr interpolationmode none
attr source core_received_count
attr title "Arrival Rate - Core, stats"
statistic FatTree Rec_Agg:stats
field count 2
field mean 2.000182096843
field stddev 2.8585383434968e-07
field min 2.0001818933117
field max 2.0001823003744
field sum 4.0003641936861
field sqrsum 8.001456841063
attr interpolationmode none
attr source agg_received_count
attr title "Arrival Rate - Aggregate, stats"
statistic FatTree Rec_Edge:stats
field count 2
field mean 2.0001825039057
field stddev 2.8894423588612e-07
field min 2.0001823003744
field max 2.0001827074371
field sum 4.0003650078115
field sqrsum 8.0014600978613
attr interpolationmode none
attr source edge_received_count
attr title "Arrival Rate - Edge, stats"
statistic FatTree Rec_Server:stats
field count 2
field mean 1.0000907431245
field stddev 0
field min 1.0000907431245
field max 1.0000907431245
field sum 2.000181486249
field sqrsum 2.0003629889667
attr interpolationmode none
attr source server_received_count
attr title "Arrival Rate - Server, stats"
statistic FatTree Time_In_System:stats
field count 1228422
field mean 2.9449740419692
field stddev 0.6978469707349
field min 0.794107074892
field max 8.260206090346
field sum 3617670.9025839
field sqrsum 11252176.127977
attr interpolationmode none
attr source completed
attr title "Time in System, stats"

