version 2
run General-0-20180315-14:16:00-2999
attr configname General
attr datetime 20180315-14:16:00
attr experiment General
attr inifile omnetpp.ini
attr iterationvars ""
attr iterationvarsf ""
attr measurement ""
attr network FatTree
attr processid 2999
attr repetition 0
attr replication #0
attr resultdir results
attr runnumber 0
attr seedset 0
param FatTree.servers[*].production_rate exponential(4s)
param FatTree.servers[*].service_rate exponential(.1s)
param FatTree.edge[*].service_rate exponential(.1s)
param FatTree.aggregate[*].service_rate exponential(.1s)
param FatTree.core[*].service_rate exponential(.1s)
param FatTree.num_vnfs 3
param FatTree.k 4

statistic FatTree Hop_Count:stats
field count 2386081
field mean 10.934188738773
field stddev 1.6221497128212
field min 4
field max 12
field sum 26089860
field sqrsum 291550112
attr interpolationmode none
attr source msg_hop_count
attr title "Hop Count, stats"
statistic FatTree Proc_Core:stats
field count 3818765
field mean 0.11900327094498
field stddev 0.1191019248403
field min 2.0768e-08
field max 1.631301349662
field sum 454445.5259702
field sqrsum 108250.69673743
attr interpolationmode none
attr source core_msg_processed
attr title "Queueing Time - Core, stats"
statistic FatTree Proc_Agg:stats
field count 8272780
field mean 0.12088205655942
field stddev 0.12083938124249
field min 2.538e-09
field max 1.988325030231
field sum 1000030.6598636
field sqrsum 241686.17278696
attr interpolationmode none
attr source agg_msg_processed
attr title "Queueing Time - Aggregate, stats"
statistic FatTree Proc_Edge:stats
field count 9226184
field mean 0.12391532825992
field stddev 0.12390340785371
field min 1.444e-09
field max 2.194773350041
field sum 1143265.6189464
field sqrsum 283308.99849782
attr interpolationmode none
attr source edge_msg_processed
attr title "Queueing Time - Edge, stats"
statistic FatTree Proc_Server:stats
field count 4772168
field mean 0.10530370034134
field stddev 0.10536514864676
field min 5.215e-09
field max 1.625588518493
field sum 502526.94905054
field sqrsum 105897.66028881
attr interpolationmode none
attr source server_msg_processed
attr title "Queueing Time - Server, stats"
statistic FatTree Rec_Core:stats
field count 4
field mean 1.6005235857888
field stddev 0.001571994801796
field min 1.5990361263076
field max 1.6020605015166
field sum 6.4020943431553
field sqrsum 10.246710408168
attr interpolationmode none
attr source core_received_count
attr title "Arrival Rate - Core, stats"
statistic FatTree Rec_Agg:stats
field count 8
field mean 1.7336470181545
field stddev 0.0019070540895503
field min 1.7311748345112
field max 1.7373224974222
field sum 13.869176145236
field sqrsum 24.044281326435
attr interpolationmode none
attr source agg_received_count
attr title "Arrival Rate - Aggregate, stats"
statistic FatTree Rec_Edge:stats
field count 8
field mean 1.9334435480378
field stddev 0.0013800516839302
field min 1.9311859542098
field max 1.9354710445835
field sum 15.467548384303
field sqrsum 29.905644959391
attr interpolationmode none
attr source edge_received_count
attr title "Arrival Rate - Edge, stats"
statistic FatTree Rec_Server:stats
field count 16
field mean 0.50002863748795
field stddev 0.00076911195060414
field min 0.49805290235279
field max 0.5011929548841
field sum 8.0004581998072
field sqrsum 4.0004670859267
attr interpolationmode none
attr source server_received_count
attr title "Arrival Rate - Server, stats"
statistic FatTree Time_In_System:stats
field count 2386081
field mean 1.2993121138109
field stddev 0.44930293095183
field min 0.023633261677
field max 4.631946583403
field sum 3100263.9478341
field sqrsum 4509895.9265779
attr interpolationmode none
attr source completed
attr title "Time in System, stats"

