version 2
run DifferentLengths-355-20180401-06:43:03-21613
attr configname DifferentLengths
attr datetime 20180401-06:43:03
attr experiment DifferentLengths
attr inifile omnetpp.ini
attr iterationvars "$0=4.4, $1=\"100.100.100.100\""
attr iterationvarsf 4.4,100.100.100.100-
attr measurement "$0=4.4, $1=\"100.100.100.100\""
attr network FatTree
attr processid 21613
attr repetition 0
attr replication #0
attr resultdir results
attr runnumber 355
attr seedset 355
param FatTree.vms[*].service_rate 20
param FatTree.servers[*].service_rate 40
param FatTree.edge[*].service_rate 40
param FatTree.aggregate[*].service_rate 40
param FatTree.core[*].service_rate 40
param FatTree.sdn.service_rate 40
param FatTree.vms[*].production_rate 4.4
param FatTree.vnf_chains "\"100.100.100.100\""
param FatTree.k 4
param FatTree.vm_k 2
param FatTree.p_sdn 0
param FatTree.vnf_chains "\"100\""
param FatTree.prob_service "\"EQUAL\""

statistic FatTree Proc_SDN:stats
field count 0
field mean -nan
field stddev nan
field min nan
field max nan
field sum 0
field sqrsum 0
attr interpolationmode none
attr source sdn_msg_processed
attr title "Queueing Time - SDN, stats"
statistic FatTree Proc_Core:stats
field count 12547754
field mean 0.41928058672403
field stddev 0.4239268828995
field min 1.7846e-08
field max 5.359957990402
field sum 5261029.6591887
field sqrsum 4460854.5105779
attr interpolationmode none
attr source core_msg_processed
attr title "Queueing Time - Core, stats"
statistic FatTree Proc_Agg:stats
field count 26697447
field mean 1609.7515231565
field stddev 937.35586915212
field min 0.000177507164
field max 3374.0073968163
field sum 42976255972.64
field sqrsum 92638431354199
attr interpolationmode none
attr source agg_msg_processed
attr title "Queueing Time - Aggregate, stats"
statistic FatTree Proc_Edge:stats
field count 26693735
field mean 11155.581628182
field stddev 6438.2539753499
field min 6.1578357e-05
field max 22373.772541092
field sum 297784139753.56
field sqrsum 4.4284402964215e+15
attr interpolationmode none
attr source edge_msg_processed
attr title "Queueing Time - Edge, stats"
statistic FatTree Proc_Server:stats
field count 34479667
field mean 0.070561334138407
field stddev 0.070589939027007
field min 1.956e-09
field max 1.185554096777
field sum 2432931.304168
field sqrsum 343480.96806592
attr interpolationmode none
attr source server_msg_processed
attr title "Queueing Time - Server, stats"
statistic FatTree Proc_VNF:stats
field count 12202477
field mean 0.064798889939637
field stddev 0.064837251016064
field min 7.323e-09
field max 1.203665975968
field sum 790706.96411395
field sqrsum 102534.54557777
attr interpolationmode none
attr source vnf_msg_processed
attr title "Queueing Time - VNF, stats"
statistic FatTree Rec_SDN:stats
field count 1
field mean 0
field stddev -nan
field min 0
field max 0
field sum 0
field sqrsum 0
attr interpolationmode none
attr source sdn_received_count
attr title "Arrival Rate - SDN, stats"
statistic FatTree Rec_Core:stats
field count 4
field mean 37.601450389693
field stddev 0.026157676265007
field min 37.575670370945
field max 37.635423198311
field sum 150.40580155877
field sqrsum 5655.4783383063
attr interpolationmode none
attr source core_received_count
attr title "Arrival Rate - Core, stats"
statistic FatTree Rec_Agg:stats
field count 8
field mean 41.625768851506
field stddev 0.025659755140114
field min 41.57797108456
field max 41.661481204572
field sum 333.00615081205
field sqrsum 13861.641668793
attr interpolationmode none
attr source agg_received_count
attr title "Arrival Rate - Aggregate, stats"
statistic FatTree Rec_Edge:stats
field count 8
field mean 54.578720966626
field stddev 0.016678608283583
field min 54.544646272545
field max 54.595457152224
field sum 436.629767733
field sqrsum 23830.696206054
attr interpolationmode none
attr source edge_received_count
attr title "Arrival Rate - Edge, stats"
statistic FatTree Rec_Server:stats
field count 16
field mean 25.830730738399
field stddev 0.018720546222811
field min 25.793191938579
field max 25.856193114233
field sum 413.29169181439
field sqrsum 10675.631664558
attr interpolationmode none
attr source server_received_count
attr title "Arrival Rate - Server, stats"
statistic FatTree Rec_VNF:stats
field count 32
field mean 4.5707946269727
field stddev 0.0088672122483651
field min 4.5557665211934
field max 4.5893527643787
field sum 146.26542806313
field sqrsum 668.55167015384
attr interpolationmode none
attr source vnf_received_count
attr title "Arrival Rate - VNF, stats"
scalar FatTree Time_In_System:mean 37874.274300036
attr interpolationmode none
attr source completed
attr title "Time in System, mean"

