version 2
run DifferentLengths-203-20180401-01:15:30-21613
attr configname DifferentLengths
attr datetime 20180401-01:15:30
attr experiment DifferentLengths
attr inifile omnetpp.ini
attr iterationvars "$0=2.5, $1=\"100.100.100.100\""
attr iterationvarsf 2.5,100.100.100.100-
attr measurement "$0=2.5, $1=\"100.100.100.100\""
attr network FatTree
attr processid 21613
attr repetition 0
attr replication #0
attr resultdir results
attr runnumber 203
attr seedset 203
param FatTree.vms[*].service_rate 20
param FatTree.servers[*].service_rate 40
param FatTree.edge[*].service_rate 40
param FatTree.aggregate[*].service_rate 40
param FatTree.core[*].service_rate 40
param FatTree.sdn.service_rate 40
param FatTree.vms[*].production_rate 2.5
param FatTree.vnf_chains "\"100.100.100.100\""
param FatTree.k 4
param FatTree.vm_k 2
param FatTree.p_sdn 0
param FatTree.vnf_chains "\"100\""
param FatTree.prob_service "\"EQUAL\""

statistic FatTree Proc_SDN:stats
field count 0
field mean -nan
field stddev nan
field min nan
field max nan
field sum 0
field sqrsum 0
attr interpolationmode none
attr source sdn_msg_processed
attr title "Queueing Time - SDN, stats"
statistic FatTree Proc_Core:stats
field count 13343107
field mean 0.22932476235075
field stddev 0.2289900835748
field min 4.2922e-08
field max 2.885843424818
field sum 3059904.8417957
field sqrsum 1401377.1730309
attr interpolationmode none
attr source core_msg_processed
attr title "Queueing Time - Core, stats"
statistic FatTree Proc_Agg:stats
field count 28910724
field mean 0.72923698095328
field stddev 0.72806357077937
field min 1.5093e-08
field max 8.414224363066
field sum 21082769.086934
field sqrsum 30699231.563551
attr interpolationmode none
attr source agg_msg_processed
attr title "Queueing Time - Aggregate, stats"
statistic FatTree Proc_Edge:stats
field count 29942277
field mean 6924.3072733111
field stddev 4000.9871293084
field min 0.000156874526
field max 13918.491642943
field sum 207329526410.59
field sqrsum 1.9149262480591e+15
attr interpolationmode none
attr source edge_msg_processed
attr title "Queueing Time - Edge, stats"
statistic FatTree Proc_Server:stats
field count 34606610
field mean 0.059268033730257
field stddev 0.059293216699517
field min 3.32e-10
field max 1.083488992108
field sum 2051065.7287699
field sqrsum 243228.58787301
attr interpolationmode none
attr source server_msg_processed
attr title "Queueing Time - Server, stats"
statistic FatTree Proc_VNF:stats
field count 15027344
field mean 0.066707669187297
field stddev 0.066655651639888
field min 2.014e-09
field max 1.140804337815
field sum 1002439.0923157
field sqrsum 133636.49807359
attr interpolationmode none
attr source vnf_msg_processed
attr title "Queueing Time - VNF, stats"
statistic FatTree Rec_SDN:stats
field count 1
field mean 0
field stddev -nan
field min 0
field max 0
field sum 0
field sqrsum 0
attr interpolationmode none
attr source sdn_received_count
attr title "Arrival Rate - SDN, stats"
statistic FatTree Rec_Core:stats
field count 4
field mean 35.649385274353
field stddev 0.028055204380065
field min 35.624981593575
field max 35.689616347831
field sum 142.59754109741
field sqrsum 5083.5170430405
attr interpolationmode none
attr source core_received_count
attr title "Arrival Rate - Core, stats"
statistic FatTree Rec_Agg:stats
field count 8
field mean 38.621189321418
field stddev 0.020995347001661
field min 38.595081069988
field max 38.661073068588
field sum 308.96951457134
field sqrsum 11932.773202439
attr interpolationmode none
attr source agg_received_count
attr title "Arrival Rate - Aggregate, stats"
statistic FatTree Rec_Edge:stats
field count 8
field mean 46.951627814621
field stddev 0.027088918511785
field min 46.921240770245
field max 47.0072708251
field sum 375.61302251696
field sqrsum 17635.647972208
attr interpolationmode none
attr source edge_received_count
attr title "Arrival Rate - Edge, stats"
statistic FatTree Rec_Server:stats
field count 16
field mean 23.114995307679
field stddev 0.022095866773776
field min 23.076819470837
field max 23.158361001091
field sum 369.83992492286
field sqrsum 8548.8554525941
attr interpolationmode none
attr source server_received_count
attr title "Arrival Rate - Server, stats"
statistic FatTree Rec_VNF:stats
field count 32
field mean 5.0186517513674
field stddev 0.0085844096352981
field min 5.0066713315002
field max 5.0381658124513
field sum 160.59685604376
field sqrsum 805.98197730286
attr interpolationmode none
attr source vnf_received_count
attr title "Arrival Rate - VNF, stats"
scalar FatTree Time_In_System:mean 32200.029430954
attr interpolationmode none
attr source completed
attr title "Time in System, mean"

