version 2
run DifferentProbServices_Near-0-20180329-13:53:59-22888
attr configname DifferentProbServices_Near
attr datetime 20180329-13:53:59
attr experiment DifferentProbServices_Near
attr inifile omnetpp.ini
attr iterationvars $0=3
attr iterationvarsf 3-
attr measurement $0=3
attr network FatTree
attr processid 22888
attr repetition 0
attr replication #0
attr resultdir results
attr runnumber 0
attr seedset 0
param FatTree.vms[*].service_rate exponential(0.5s)
param FatTree.servers[*].service_rate exponential(0.1s)
param FatTree.edge[*].service_rate exponential(0.1s)
param FatTree.aggregate[*].service_rate exponential(0.1s)
param FatTree.core[*].service_rate exponential(0.1s)
param FatTree.sdn.service_rate exponential(0.1s)
param FatTree.prob_service "\"10 20 30 40\""
param FatTree.vms[*].production_rate exponential(3s)
param FatTree.vnf_chains "\"100.100 100.100.100 100.100.100.100 100.100.100.100.100\""
param FatTree.vms[*].production_rate exponential(5s)
param FatTree.vnf_chains "\"100\""
param FatTree.prob_service "\"100\";"
param FatTree.k 4
param FatTree.vm_k 2
param FatTree.p_sdn 0

statistic FatTree Proc_SDN:stats
field count 0
field mean -nan
field stddev nan
field min nan
field max nan
field sum 0
field sqrsum 0
attr interpolationmode none
attr source sdn_msg_processed
attr title "Queueing Time - SDN, stats"
statistic FatTree Proc_Core:stats
field count 9774187
field mean 0.57304094215573
field stddev 0.57641823705989
field min 4.3074e-08
field max 9.414802584349
field sum 5601009.3272863
field sqrsum 6457158.9976811
attr interpolationmode none
attr source core_msg_processed
attr title "Queueing Time - Core, stats"
statistic FatTree Proc_Agg:stats
field count 21178387
field mean 0.94429417249161
field stddev 0.94445399843495
field min 5.5647e-08
field max 13.591657417971
field sum 19998627.426872
field sqrsum 37775566.922035
attr interpolationmode none
attr source agg_msg_processed
attr title "Queueing Time - Aggregate, stats"
statistic FatTree Proc_Edge:stats
field count 23622601
field mean 34.871403319674
field stddev 30.293388013422
field min 6.333986e-06
field max 164.58924279146
field sum 823753246.93072
field sqrsum 50403640322.117
attr interpolationmode none
attr source edge_msg_processed
attr title "Queueing Time - Edge, stats"
statistic FatTree Proc_Server:stats
field count 24847066
field mean 0.21030804205641
field stddev 0.21018130237596
field min 5.82e-10
field max 3.046741946896
field sum 5225537.8013063
field sqrsum 2196621.0363277
attr interpolationmode none
attr source server_msg_processed
attr title "Queueing Time - Server, stats"
statistic FatTree Proc_VNF:stats
field count 12625158
field mean 1.4996824632649
field stddev 1.4997038793599
field min 2.02213e-07
field max 20.789210750348
field sum 18933728.048548
field sqrsum 56789968.566985
attr interpolationmode none
attr source vnf_msg_processed
attr title "Queueing Time - VNF, stats"
statistic FatTree Rec_SDN:stats
field count 0
field mean -nan
field stddev nan
field min nan
field max nan
field sum 0
field sqrsum 0
attr interpolationmode none
attr source sdn_received_count
attr title "Arrival Rate - SDN, stats"
statistic FatTree Rec_Core:stats
field count 4
field mean 8.2532450349555
field stddev 0.0028790693123928
field min 8.2496158512558
field max 8.2566411673055
field sum 33.012980139822
field sqrsum 272.46423929519
attr interpolationmode none
attr source core_received_count
attr title "Arrival Rate - Core, stats"
statistic FatTree Rec_Agg:stats
field count 8
field mean 8.9414308938977
field stddev 0.005047095416179
field min 8.9337127567158
field max 8.9503472189972
field sum 71.531447151182
field sqrsum 639.59366975499
attr interpolationmode none
attr source agg_received_count
attr title "Arrival Rate - Aggregate, stats"
statistic FatTree Rec_Edge:stats
field count 8
field mean 9.974767490566
field stddev 0.0066271232022798
field min 9.9639145594135
field max 9.9837441894752
field sum 79.798139924528
field sqrsum 795.96819935814
attr interpolationmode none
attr source edge_received_count
attr title "Arrival Rate - Edge, stats"
statistic FatTree Rec_Server:stats
field count 16
field mean 5.2451497262365
field stddev 0.0048518092228014
field min 5.238106044727
field max 5.2535887604829
field sum 83.922395619783
field sqrsum 440.185883511
attr interpolationmode none
attr source server_received_count
attr title "Arrival Rate - Server, stats"
statistic FatTree Rec_VNF:stats
field count 32
field mean 1.3325754796574
field stddev 0.0021974222716703
field min 1.3284399792346
field max 1.3394508111203
field sum 42.642415349038
field sqrsum 56.8243867761
attr interpolationmode none
attr source vnf_received_count
attr title "Arrival Rate - VNF, stats"
scalar FatTree Time_In_System:mean 276.6825083095
attr interpolationmode none
attr source completed
attr title "Time in System, mean"

