version 2
run DifferentLengths-77-20180331-20:57:01-21613
attr configname DifferentLengths
attr datetime 20180331-20:57:01
attr experiment DifferentLengths
attr inifile omnetpp.ini
attr iterationvars "$0=0.9, $1=\"100.100.100.100.100.100\""
attr iterationvarsf 0.9,100.100.100.100.100.100-
attr measurement "$0=0.9, $1=\"100.100.100.100.100.100\""
attr network FatTree
attr processid 21613
attr repetition 0
attr replication #0
attr resultdir results
attr runnumber 77
attr seedset 77
param FatTree.vms[*].service_rate 20
param FatTree.servers[*].service_rate 40
param FatTree.edge[*].service_rate 40
param FatTree.aggregate[*].service_rate 40
param FatTree.core[*].service_rate 40
param FatTree.sdn.service_rate 40
param FatTree.vms[*].production_rate 0.9
param FatTree.vnf_chains "\"100.100.100.100.100.100\""
param FatTree.k 4
param FatTree.vm_k 2
param FatTree.p_sdn 0
param FatTree.vnf_chains "\"100\""
param FatTree.prob_service "\"EQUAL\""

statistic FatTree Proc_SDN:stats
field count 0
field mean -nan
field stddev nan
field min nan
field max nan
field sum 0
field sqrsum 0
attr interpolationmode none
attr source sdn_msg_processed
attr title "Queueing Time - SDN, stats"
statistic FatTree Proc_Core:stats
field count 14241779
field mean 0.14460475252499
field stddev 0.14377511119607
field min 4.773e-09
field max 1.930030350669
field sum 2059428.9278106
field sqrsum 592199.02820537
attr interpolationmode none
attr source core_msg_processed
attr title "Queueing Time - Core, stats"
statistic FatTree Proc_Agg:stats
field count 30856165
field mean 0.2418817220512
field stddev 0.24236332431716
field min 2.421e-09
field max 3.213383022225
field sum 7463542.3260959
field sqrsum 3617784.9567306
attr interpolationmode none
attr source agg_msg_processed
attr title "Queueing Time - Aggregate, stats"
statistic FatTree Proc_Edge:stats
field count 34386283
field mean 96.795373363744
field stddev 60.684226758775
field min 3.775861e-06
field max 248.79529810888
field sum 3328433101.5764
field sqrsum 448807000193.78
attr interpolationmode none
attr source edge_msg_processed
attr title "Queueing Time - Edge, stats"
statistic FatTree Proc_Server:stats
field count 36198654
field mean 0.052699714076495
field stddev 0.052675415373591
field min 6.4e-10
field max 0.834406299299
field sum 1907658.715754
field sqrsum 200973.44908475
attr interpolationmode none
attr source server_msg_processed
attr title "Queueing Time - Server, stats"
statistic FatTree Proc_VNF:stats
field count 18366556
field mean 0.06819255723285
field stddev 0.068200073734817
field min 1.583e-09
field max 1.315727110191
field sum 1252462.4212003
field sqrsum 170836.05533832
attr interpolationmode none
attr source vnf_msg_processed
attr title "Queueing Time - VNF, stats"
statistic FatTree Rec_SDN:stats
field count 1
field mean 0
field stddev -nan
field min 0
field max 0
field sum 0
field sqrsum 0
attr interpolationmode none
attr source sdn_received_count
attr title "Arrival Rate - SDN, stats"
statistic FatTree Rec_Core:stats
field count 4
field mean 33.11812751914
field stddev 0.0073699642041547
field min 33.109425804091
field max 33.126624597384
field sum 132.47251007656
field sqrsum 4387.2416444451
attr interpolationmode none
attr source core_received_count
attr title "Arrival Rate - Core, stats"
statistic FatTree Rec_Agg:stats
field count 8
field mean 35.876829311143
field stddev 0.013049557855001
field min 35.85434949303
field max 35.901341544797
field sum 287.01463448914
field sqrsum 10297.176243404
attr interpolationmode none
attr source agg_received_count
attr title "Arrival Rate - Aggregate, stats"
statistic FatTree Rec_Edge:stats
field count 8
field mean 40.051216659128
field stddev 0.013419332823237
field min 40.02985187906
field max 40.071151306979
field sum 320.40973327302
field sqrsum 12832.80090756
attr interpolationmode none
attr source edge_received_count
attr title "Arrival Rate - Edge, stats"
statistic FatTree Rec_Server:stats
field count 16
field mean 21.044260114436
field stddev 0.01509255402684
field min 21.022366883074
field max 21.07373072113
field sum 336.70816183098
field sqrsum 7085.7775570027
attr interpolationmode none
attr source server_received_count
attr title "Arrival Rate - Server, stats"
statistic FatTree Rec_VNF:stats
field count 32
field mean 5.3387422820835
field stddev 0.0069548592398307
field min 5.3276168998751
field max 5.3540987627772
field sum 170.83975302667
field sqrsum 912.07091241628
attr interpolationmode none
attr source vnf_received_count
attr title "Arrival Rate - VNF, stats"
scalar FatTree Time_In_System:mean 1081.3416872504
attr interpolationmode none
attr source completed
attr title "Time in System, mean"

