version 2
run DifferentRT_Base-2-20180326-13:49:30-2290
attr configname DifferentRT_Base
attr datetime 20180326-13:49:30
attr experiment DifferentRT_Base
attr inifile omnetpp.ini
attr iterationvars $0=2
attr iterationvarsf 2-
attr measurement $0=2
attr network FatTree
attr processid 2290
attr repetition 0
attr replication #0
attr resultdir results
attr runnumber 2
attr seedset 2
param FatTree.vms[*].service_rate exponential(0.5s)
param FatTree.servers[*].service_rate exponential(0.1s)
param FatTree.edge[*].service_rate exponential(0.1s)
param FatTree.aggregate[*].service_rate exponential(0.1s)
param FatTree.core[*].service_rate exponential(0.1s)
param FatTree.sdn.service_rate exponential(0.1s)
param FatTree.vms[*].production_rate exponential(2s)
param FatTree.vnf_chains "\"100.100\""
param FatTree.vms[*].production_rate exponential(5s)
param FatTree.vnf_chains "\"100\""
param FatTree.k 4
param FatTree.vm_k 2
param FatTree.p_sdn 0

scalar FatTree Time_In_System:mean 5.5630939844332
attr interpolationmode none
attr source completed
attr title "Time in System, mean"

