version 2
run DifferentLengths-222-20180401-01:55:32-21613
attr configname DifferentLengths
attr datetime 20180401-01:55:32
attr experiment DifferentLengths
attr inifile omnetpp.ini
attr iterationvars "$0=2.7, $1=\"100.100.100.100.100.100.100\""
attr iterationvarsf 2.7,100.100.100.100.100.100.100-
attr measurement "$0=2.7, $1=\"100.100.100.100.100.100.100\""
attr network FatTree
attr processid 21613
attr repetition 0
attr replication #0
attr resultdir results
attr runnumber 222
attr seedset 222
param FatTree.vms[*].service_rate 20
param FatTree.servers[*].service_rate 40
param FatTree.edge[*].service_rate 40
param FatTree.aggregate[*].service_rate 40
param FatTree.core[*].service_rate 40
param FatTree.sdn.service_rate 40
param FatTree.vms[*].production_rate 2.7
param FatTree.vnf_chains "\"100.100.100.100.100.100.100\""
param FatTree.k 4
param FatTree.vm_k 2
param FatTree.p_sdn 0
param FatTree.vnf_chains "\"100\""
param FatTree.prob_service "\"EQUAL\""

statistic FatTree Proc_SDN:stats
field count 0
field mean -nan
field stddev nan
field min nan
field max nan
field sum 0
field sqrsum 0
attr interpolationmode none
attr source sdn_msg_processed
attr title "Queueing Time - SDN, stats"
statistic FatTree Proc_Core:stats
field count 13546370
field mean 0.30417183314442
field stddev 0.30506388659986
field min 1.0926e-08
field max 3.988041921998
field sum 4120424.1953526
field sqrsum 2513995.9255356
attr interpolationmode none
attr source core_msg_processed
attr title "Queueing Time - Core, stats"
statistic FatTree Proc_Agg:stats
field count 29347692
field mean 4.6371582055252
field stddev 4.5424310914171
field min 1.7506e-07
field max 32.39124661793
field sum 136089890.77103
field sqrsum 1236621224.9753
attr interpolationmode none
attr source agg_msg_processed
attr title "Queueing Time - Aggregate, stats"
statistic FatTree Proc_Edge:stats
field count 29514854
field mean 9395.2710497983
field stddev 5423.7288822213
field min 8.9529257e-05
field max 18825.178292568
field sum 277300053325.22
field sqrsum 3.4735427235054e+15
attr interpolationmode none
attr source edge_msg_processed
attr title "Queueing Time - Edge, stats"
statistic FatTree Proc_Server:stats
field count 35685267
field mean 0.063154640728441
field stddev 0.06314472988867
field min 2.3e-11
field max 0.982472407384
field sum 2253690.2166835
field sqrsum 284617.31948836
attr interpolationmode none
attr source server_msg_processed
attr title "Queueing Time - Server, stats"
statistic FatTree Proc_VNF:stats
field count 14419487
field mean 0.066212084006185
field stddev 0.066208502400533
field min 1.3772e-08
field max 0.969454783043
field sum 954744.28457009
field sqrsum 126424.37431511
attr interpolationmode none
attr source vnf_msg_processed
attr title "Queueing Time - VNF, stats"
statistic FatTree Rec_SDN:stats
field count 1
field mean 0
field stddev -nan
field min 0
field max 0
field sum 0
field sqrsum 0
attr interpolationmode none
attr source sdn_received_count
attr title "Arrival Rate - SDN, stats"
statistic FatTree Rec_Core:stats
field count 4
field mean 36.722446972028
field stddev 0.01256439462054
field min 36.70399960435
field max 36.730511765392
field sum 146.88978788811
field sqrsum 5394.1529200457
attr interpolationmode none
attr source core_received_count
attr title "Arrival Rate - Core, stats"
statistic FatTree Rec_Agg:stats
field count 8
field mean 39.781268576263
field stddev 0.015964089599896
field min 39.747433040676
field max 39.798613981419
field sum 318.2501486101
field sqrsum 12660.396420259
attr interpolationmode none
attr source agg_received_count
attr title "Arrival Rate - Aggregate, stats"
statistic FatTree Rec_Edge:stats
field count 8
field mean 50.241647137089
field stddev 0.018630434806841
field min 50.20680045262
field max 50.26427057676
field sum 401.93317709671
field sqrsum 20193.787286034
attr interpolationmode none
attr source edge_received_count
attr title "Arrival Rate - Edge, stats"
statistic FatTree Rec_Server:stats
field count 16
field mean 24.184422444192
field stddev 0.020223034715359
field min 24.14580157197
field max 24.22090309646
field sum 386.95075910707
field sqrsum 9358.1867579131
attr interpolationmode none
attr source server_received_count
attr title "Arrival Rate - Server, stats"
statistic FatTree Rec_VNF:stats
field count 32
field mean 4.8861468897892
field stddev 0.0060486443669537
field min 4.8721870035616
field max 4.8966063846113
field sum 156.35670047326
field sqrsum 763.98293988416
attr interpolationmode none
attr source vnf_received_count
attr title "Arrival Rate - VNF, stats"
scalar FatTree Time_In_System:mean 43506.107525282
attr interpolationmode none
attr source completed
attr title "Time in System, mean"

