version 2
run DifferentRT_Base-8-20180326-14:01:30-2290
attr configname DifferentRT_Base
attr datetime 20180326-14:01:30
attr experiment DifferentRT_Base
attr inifile omnetpp.ini
attr iterationvars $0=3.2
attr iterationvarsf 3.2-
attr measurement $0=3.2
attr network FatTree
attr processid 2290
attr repetition 0
attr replication #0
attr resultdir results
attr runnumber 8
attr seedset 8
param FatTree.vms[*].service_rate exponential(0.5s)
param FatTree.servers[*].service_rate exponential(0.1s)
param FatTree.edge[*].service_rate exponential(0.1s)
param FatTree.aggregate[*].service_rate exponential(0.1s)
param FatTree.core[*].service_rate exponential(0.1s)
param FatTree.sdn.service_rate exponential(0.1s)
param FatTree.vms[*].production_rate exponential(3.2s)
param FatTree.vnf_chains "\"100.100\""
param FatTree.vms[*].production_rate exponential(5s)
param FatTree.vnf_chains "\"100\""
param FatTree.k 4
param FatTree.vm_k 2
param FatTree.p_sdn 0

scalar FatTree Time_In_System:mean 3.5088608481415
attr interpolationmode none
attr source completed
attr title "Time in System, mean"

