version 2
run DifferentLengths-312-20180401-05:08:55-21613
attr configname DifferentLengths
attr datetime 20180401-05:08:55
attr experiment DifferentLengths
attr inifile omnetpp.ini
attr iterationvars "$0=3.9, $1=\"100\""
attr iterationvarsf 3.9,100-
attr measurement "$0=3.9, $1=\"100\""
attr network FatTree
attr processid 21613
attr repetition 0
attr replication #0
attr resultdir results
attr runnumber 312
attr seedset 312
param FatTree.vms[*].service_rate 20
param FatTree.servers[*].service_rate 40
param FatTree.edge[*].service_rate 40
param FatTree.aggregate[*].service_rate 40
param FatTree.core[*].service_rate 40
param FatTree.sdn.service_rate 40
param FatTree.vms[*].production_rate 3.9
param FatTree.vnf_chains "\"100\""
param FatTree.k 4
param FatTree.vm_k 2
param FatTree.p_sdn 0
param FatTree.vnf_chains "\"100\""
param FatTree.prob_service "\"EQUAL\""

statistic FatTree Proc_SDN:stats
field count 0
field mean -nan
field stddev nan
field min nan
field max nan
field sum 0
field sqrsum 0
attr interpolationmode none
attr source sdn_msg_processed
attr title "Queueing Time - SDN, stats"
statistic FatTree Proc_Core:stats
field count 14157169
field mean 0.063156593071258
field stddev 0.063088187290636
field min 6.484e-09
field max 0.992495628774
field sum 894118.56157403
field sqrsum 112816.70081147
attr interpolationmode none
attr source core_msg_processed
attr title "Queueing Time - Core, stats"
statistic FatTree Proc_Agg:stats
field count 30673104
field mean 0.072297679742803
field stddev 0.072258854283303
field min 9.6e-10
field max 1.28696690487
field sum 2217594.2497097
field sqrsum 320481.68051432
attr interpolationmode none
attr source agg_msg_processed
attr title "Queueing Time - Aggregate, stats"
statistic FatTree Proc_Edge:stats
field count 34212230
field mean 0.09244857151481
field stddev 0.092358554334845
field min 2.119e-09
field max 1.221269251266
field sum 3162871.7918361
field sqrsum 584236.80117566
attr interpolationmode none
attr source edge_msg_processed
attr title "Queueing Time - Edge, stats"
statistic FatTree Proc_Server:stats
field count 35983304
field mean 0.040541261752342
field stddev 0.040520812957957
field min 2.526e-09
field max 0.756725418886
field sum 1458808.5461781
field sqrsum 118224.2298869
attr interpolationmode none
attr source server_msg_processed
attr title "Queueing Time - Server, stats"
statistic FatTree Proc_VNF:stats
field count 18286974
field mean 0.062123808022667
field stddev 0.062124856107804
field min 3.981e-09
field max 0.958563149997
field sum 1136056.4620915
field sqrsum 141154.68463614
attr interpolationmode none
attr source vnf_msg_processed
attr title "Queueing Time - VNF, stats"
statistic FatTree Rec_SDN:stats
field count 1
field mean 0
field stddev -nan
field min 0
field max 0
field sum 0
field sqrsum 0
attr interpolationmode none
attr source sdn_received_count
attr title "Arrival Rate - SDN, stats"
statistic FatTree Rec_Core:stats
field count 4
field mean 24.153889812705
field stddev 0.002821233632483
field min 24.151269206361
field max 24.156578664005
field sum 96.615559250819
field sqrsum 2333.6415962152
attr interpolationmode none
attr source core_received_count
attr title "Arrival Rate - Core, stats"
statistic FatTree Rec_Agg:stats
field count 8
field mean 26.166067627151
field stddev 0.011536953016645
field min 26.148082521831
field max 26.179024785274
field sum 209.32854101721
field sqrsum 5477.3056922582
attr interpolationmode none
attr source agg_received_count
attr title "Arrival Rate - Aggregate, stats"
statistic FatTree Rec_Edge:stats
field count 8
field mean 29.185172482197
field stddev 0.014896587040341
field min 29.167730777346
field max 29.209790144263
field sum 233.48137985758
field sqrsum 6814.195895883
attr interpolationmode none
attr source edge_received_count
attr title "Arrival Rate - Edge, stats"
statistic FatTree Rec_Server:stats
field count 16
field mean 15.347996493163
field stddev 0.0098711423299529
field min 15.333345153985
field max 15.364826552588
field sum 245.5679438906
field sqrsum 3768.9774032578
attr interpolationmode none
attr source server_received_count
attr title "Arrival Rate - Server, stats"
statistic FatTree Rec_VNF:stats
field count 32
field mean 3.8999821807183
field stddev 0.0054720786585515
field min 3.8883451359794
field max 3.9120534339953
field sum 124.79942978299
field sqrsum 486.71648057044
attr interpolationmode none
attr source vnf_received_count
attr title "Arrival Rate - VNF, stats"
scalar FatTree Time_In_System:mean 0.4850140384381
attr interpolationmode none
attr source completed
attr title "Time in System, mean"

