version 2
run DifferentLengths-99-20180331-21:41:18-21613
attr configname DifferentLengths
attr datetime 20180331-21:41:18
attr experiment DifferentLengths
attr inifile omnetpp.ini
attr iterationvars "$0=1.2, $1=\"100.100.100.100\""
attr iterationvarsf 1.2,100.100.100.100-
attr measurement "$0=1.2, $1=\"100.100.100.100\""
attr network FatTree
attr processid 21613
attr repetition 0
attr replication #0
attr resultdir results
attr runnumber 99
attr seedset 99
param FatTree.vms[*].service_rate 20
param FatTree.servers[*].service_rate 40
param FatTree.edge[*].service_rate 40
param FatTree.aggregate[*].service_rate 40
param FatTree.core[*].service_rate 40
param FatTree.sdn.service_rate 40
param FatTree.vms[*].production_rate 1.2
param FatTree.vnf_chains "\"100.100.100.100\""
param FatTree.k 4
param FatTree.vm_k 2
param FatTree.p_sdn 0
param FatTree.vnf_chains "\"100\""
param FatTree.prob_service "\"EQUAL\""

statistic FatTree Proc_SDN:stats
field count 0
field mean -nan
field stddev nan
field min nan
field max nan
field sum 0
field sqrsum 0
attr interpolationmode none
attr source sdn_msg_processed
attr title "Queueing Time - SDN, stats"
statistic FatTree Proc_Core:stats
field count 15145834
field mean 0.097115543477287
field stddev 0.097177609027551
field min 1.1578e-08
field max 1.512899827891
field sum 1470895.9003268
field sqrsum 285876.34234464
attr interpolationmode none
attr source core_msg_processed
attr title "Queueing Time - Core, stats"
statistic FatTree Proc_Agg:stats
field count 32814164
field mean 0.12806336109925
field stddev 0.1279486283104
field min 5.867e-09
field max 1.987902729507
field sum 4202292.1335021
field sqrsum 1075355.4440645
attr interpolationmode none
attr source agg_msg_processed
attr title "Queueing Time - Aggregate, stats"
statistic FatTree Proc_Edge:stats
field count 36598309
field mean 0.24403120242575
field stddev 0.24321766487488
field min 2.4063e-08
field max 3.285244052974
field sum 8931129.3520192
field sqrsum 4344441.0145797
attr interpolationmode none
attr source edge_msg_processed
attr title "Queueing Time - Edge, stats"
statistic FatTree Proc_Server:stats
field count 38490884
field mean 0.047341816962026
field stddev 0.047335124780418
field min 3.522e-09
field max 0.792406400178
field sum 1822228.3850346
field sqrsum 172510.81545127
attr interpolationmode none
attr source server_msg_processed
attr title "Queueing Time - Server, stats"
statistic FatTree Proc_VNF:stats
field count 19560854
field mean 0.065770770078582
field stddev 0.065784242763299
field min 7.462e-09
field max 1.078296634143
field sum 1286532.4309747
field sqrsum 169267.12274718
attr interpolationmode none
attr source vnf_msg_processed
attr title "Queueing Time - VNF, stats"
statistic FatTree Rec_SDN:stats
field count 1
field mean 0
field stddev -nan
field min 0
field max 0
field sum 0
field sqrsum 0
attr interpolationmode none
attr source sdn_received_count
attr title "Arrival Rate - SDN, stats"
statistic FatTree Rec_Core:stats
field count 4
field mean 29.728519335411
field stddev 0.016681733882039
field min 29.706449421618
field max 29.746828491927
field sum 118.91407734164
field sqrsum 3535.1402823443
attr interpolationmode none
attr source core_received_count
attr title "Arrival Rate - Core, stats"
statistic FatTree Rec_Agg:stats
field count 8
field mean 32.204133991346
field stddev 0.016456380395162
field min 32.174558265533
field max 32.223393151266
field sum 257.63307193077
field sqrsum 8296.8518647476
attr interpolationmode none
attr source agg_received_count
attr title "Arrival Rate - Aggregate, stats"
statistic FatTree Rec_Edge:stats
field count 8
field mean 35.917926947652
field stddev 0.022664366525799
field min 35.887179420119
field max 35.953679658408
field sum 287.34341558121
field sqrsum 10320.783405449
attr interpolationmode none
attr source edge_received_count
attr title "Arrival Rate - Edge, stats"
statistic FatTree Rec_Server:stats
field count 16
field mean 18.887645288119
field stddev 0.016204429017576
field min 18.85836054992
field max 18.908592961321
field sum 302.20232460991
field sqrsum 5707.8942512299
attr interpolationmode none
attr source server_received_count
attr title "Arrival Rate - Server, stats"
statistic FatTree Rec_VNF:stats
field count 32
field mean 4.7992979565073
field stddev 0.0066075221839328
field min 4.7825605256647
field max 4.810958561307
field sum 153.57753460823
field sqrsum 737.06570145056
attr interpolationmode none
attr source vnf_received_count
attr title "Arrival Rate - VNF, stats"
scalar FatTree Time_In_System:mean 3.6221465252675
attr interpolationmode none
attr source completed
attr title "Time in System, mean"

