version 2
run DifferentLengths-148-20180331-23:21:12-21613
attr configname DifferentLengths
attr datetime 20180331-23:21:12
attr experiment DifferentLengths
attr inifile omnetpp.ini
attr iterationvars "$0=1.8, $1=\"100.100.100.100.100\""
attr iterationvarsf 1.8,100.100.100.100.100-
attr measurement "$0=1.8, $1=\"100.100.100.100.100\""
attr network FatTree
attr processid 21613
attr repetition 0
attr replication #0
attr resultdir results
attr runnumber 148
attr seedset 148
param FatTree.vms[*].service_rate 20
param FatTree.servers[*].service_rate 40
param FatTree.edge[*].service_rate 40
param FatTree.aggregate[*].service_rate 40
param FatTree.core[*].service_rate 40
param FatTree.sdn.service_rate 40
param FatTree.vms[*].production_rate 1.8
param FatTree.vnf_chains "\"100.100.100.100.100\""
param FatTree.k 4
param FatTree.vm_k 2
param FatTree.p_sdn 0
param FatTree.vnf_chains "\"100\""
param FatTree.prob_service "\"EQUAL\""

statistic FatTree Proc_SDN:stats
field count 0
field mean -nan
field stddev nan
field min nan
field max nan
field sum 0
field sqrsum 0
attr interpolationmode none
attr source sdn_msg_processed
attr title "Queueing Time - SDN, stats"
statistic FatTree Proc_Core:stats
field count 13430513
field mean 0.19255044590211
field stddev 0.19280295968829
field min 3.789e-09
field max 2.703735867123
field sum 2586051.2668441
field sqrsum 997197.49550604
attr interpolationmode none
attr source core_msg_processed
attr title "Queueing Time - Core, stats"
statistic FatTree Proc_Agg:stats
field count 29098900
field mean 0.44200378826667
field stddev 0.44664543600861
field min 2.3114e-08
field max 5.528483414347
field sum 12861824.034393
field sqrsum 11489976.740632
attr interpolationmode none
attr source agg_msg_processed
attr title "Queueing Time - Aggregate, stats"
statistic FatTree Proc_Edge:stats
field count 30849718
field mean 4935.6485179458
field stddev 2849.3657722869
field min 0.000411619959
field max 9956.9847001967
field sum 152263364925.75
field sqrsum 1.0019837654257e+15
attr interpolationmode none
attr source edge_msg_processed
attr title "Queueing Time - Edge, stats"
statistic FatTree Proc_Server:stats
field count 34504204
field mean 0.056781757454972
field stddev 0.056789536417676
field min 9.255e-09
field max 0.979798686875
field sum 1959209.3427049
field sqrsum 222525.17949765
attr interpolationmode none
attr source server_msg_processed
attr title "Queueing Time - Server, stats"
statistic FatTree Proc_VNF:stats
field count 15803671
field mean 0.067244823115762
field stddev 0.067242716901183
field min 2.852e-09
field max 1.185157897096
field sum 1062715.0609747
field sqrsum 142919.69153202
attr interpolationmode none
attr source vnf_msg_processed
attr title "Queueing Time - VNF, stats"
statistic FatTree Rec_SDN:stats
field count 1
field mean 0
field stddev -nan
field min 0
field max 0
field sum 0
field sqrsum 0
attr interpolationmode none
attr source sdn_received_count
attr title "Arrival Rate - SDN, stats"
statistic FatTree Rec_Core:stats
field count 4
field mean 34.823993482282
field stddev 0.028513482660082
field min 34.797221825072
field max 34.855987233208
field sum 139.29597392913
field sqrsum 4850.8445272722
attr interpolationmode none
attr source core_received_count
attr title "Arrival Rate - Core, stats"
statistic FatTree Rec_Agg:stats
field count 8
field mean 37.725382528068
field stddev 0.012018102869064
field min 37.70408706844
field max 37.745718615961
field sum 301.80306022455
field sqrsum 11385.636906156
attr interpolationmode none
attr source agg_received_count
attr title "Arrival Rate - Aggregate, stats"
statistic FatTree Rec_Edge:stats
field count 8
field mean 44.557467961608
field stddev 0.031198301454511
field min 44.520034313653
field max 44.59712631483
field sum 356.45974369286
field sqrsum 15882.950422536
attr interpolationmode none
attr source edge_received_count
attr title "Arrival Rate - Edge, stats"
statistic FatTree Rec_Server:stats
field count 16
field mean 22.366473711795
field stddev 0.014367702052594
field min 22.340096174866
field max 22.38573115471
field sum 357.86357938872
field sqrsum 8004.1494372698
attr interpolationmode none
attr source server_received_count
attr title "Arrival Rate - Server, stats"
statistic FatTree Rec_VNF:stats
field count 32
field mean 5.1221673713046
field stddev 0.0060744542633256
field min 5.1054963427304
field max 5.1343915822406
field sum 163.90935588175
field sqrsum 839.57229841787
attr interpolationmode none
attr source vnf_received_count
attr title "Arrival Rate - VNF, stats"
scalar FatTree Time_In_System:mean 30347.042790475
attr interpolationmode none
attr source completed
attr title "Time in System, mean"

