version 2
run DifferentLengths-277-20180401-03:52:45-21613
attr configname DifferentLengths
attr datetime 20180401-03:52:45
attr experiment DifferentLengths
attr inifile omnetpp.ini
attr iterationvars "$0=3.4, $1=\"100.100.100.100.100.100\""
attr iterationvarsf 3.4,100.100.100.100.100.100-
attr measurement "$0=3.4, $1=\"100.100.100.100.100.100\""
attr network FatTree
attr processid 21613
attr repetition 0
attr replication #0
attr resultdir results
attr runnumber 277
attr seedset 277
param FatTree.vms[*].service_rate 20
param FatTree.servers[*].service_rate 40
param FatTree.edge[*].service_rate 40
param FatTree.aggregate[*].service_rate 40
param FatTree.core[*].service_rate 40
param FatTree.sdn.service_rate 40
param FatTree.vms[*].production_rate 3.4
param FatTree.vnf_chains "\"100.100.100.100.100.100\""
param FatTree.k 4
param FatTree.vm_k 2
param FatTree.p_sdn 0
param FatTree.vnf_chains "\"100\""
param FatTree.prob_service "\"EQUAL\""

statistic FatTree Proc_SDN:stats
field count 0
field mean -nan
field stddev nan
field min nan
field max nan
field sum 0
field sqrsum 0
attr interpolationmode none
attr source sdn_msg_processed
attr title "Queueing Time - SDN, stats"
statistic FatTree Proc_Core:stats
field count 12609853
field mean 0.35793091739587
field stddev 0.36702307260298
field min 4.383e-08
field max 4.756191544364
field sum 4513456.2525171
field sqrsum 3314127.4513382
attr interpolationmode none
attr source core_msg_processed
attr title "Queueing Time - Core, stats"
statistic FatTree Proc_Agg:stats
field count 27116503
field mean 692.97882902551
field stddev 400.38998417499
field min 2.634367e-06
field max 1463.1311239426
field sum 18791162496.207
field sqrsum 17368982232064
attr interpolationmode none
attr source agg_msg_processed
attr title "Queueing Time - Aggregate, stats"
statistic FatTree Proc_Edge:stats
field count 27113469
field mean 9996.7040712662
field stddev 5772.6499051287
field min 0.000328228927
field max 20121.154229967
field sum 271045325938.45
field sqrsum 3.6130752097552e+15
attr interpolationmode none
attr source edge_msg_processed
attr title "Queueing Time - Edge, stats"
statistic FatTree Proc_Server:stats
field count 33831892
field mean 0.066525553781603
field stddev 0.066598175104396
field min 2.846e-09
field max 1.005577748268
field sum 2250685.3507794
field sqrsum 299783.24818144
attr interpolationmode none
attr source server_msg_processed
attr title "Queueing Time - Server, stats"
statistic FatTree Proc_VNF:stats
field count 12854288
field mean 0.065538502494944
field stddev 0.065516633517648
field min 4.42e-10
field max 1.052630697715
field sum 842450.78615873
field sqrsum 110389.08068199
attr interpolationmode none
attr source vnf_msg_processed
attr title "Queueing Time - VNF, stats"
statistic FatTree Rec_SDN:stats
field count 1
field mean 0
field stddev -nan
field min 0
field max 0
field sum 0
field sqrsum 0
attr interpolationmode none
attr source sdn_received_count
attr title "Arrival Rate - SDN, stats"
statistic FatTree Rec_Core:stats
field count 4
field mean 37.202102113648
field stddev 0.02535145956207
field min 37.177910229705
field max 37.225633146127
field sum 148.80840845459
field sqrsum 5535.9875347867
attr interpolationmode none
attr source core_received_count
attr title "Arrival Rate - Core, stats"
statistic FatTree Rec_Agg:stats
field count 8
field mean 40.66656280852
field stddev 0.029429726998908
field min 40.612319884352
field max 40.708214152118
field sum 325.33250246816
field sqrsum 13230.160708036
attr interpolationmode none
attr source agg_received_count
attr title "Arrival Rate - Aggregate, stats"
statistic FatTree Rec_Edge:stats
field count 8
field mean 52.343265331712
field stddev 0.031865962036732
field min 52.287594496345
field max 52.384775064282
field sum 418.74612265369
field sqrsum 21918.546512764
attr interpolationmode none
attr source edge_received_count
attr title "Arrival Rate - Edge, stats"
statistic FatTree Rec_Server:stats
field count 16
field mean 24.952996014528
field stddev 0.022200593147182
field min 24.927234608359
field max 25.010006254201
field sum 399.24793623245
field sqrsum 9962.4395546121
attr interpolationmode none
attr source server_received_count
attr title "Arrival Rate - Server, stats"
statistic FatTree Rec_VNF:stats
field count 32
field mean 4.7403915454847
field stddev 0.0065502946235655
field min 4.7314486615576
field max 4.7557585546905
field sum 151.69252945551
field sqrsum 719.08331424124
attr interpolationmode none
attr source vnf_received_count
attr title "Arrival Rate - VNF, stats"
scalar FatTree Time_In_System:mean 40299.095664065
attr interpolationmode none
attr source completed
attr title "Time in System, mean"

