version 2
run DifferentLengths-352-20180401-06:36:40-21613
attr configname DifferentLengths
attr datetime 20180401-06:36:40
attr experiment DifferentLengths
attr inifile omnetpp.ini
attr iterationvars "$0=4.4, $1=\"100\""
attr iterationvarsf 4.4,100-
attr measurement "$0=4.4, $1=\"100\""
attr network FatTree
attr processid 21613
attr repetition 0
attr replication #0
attr resultdir results
attr runnumber 352
attr seedset 352
param FatTree.vms[*].service_rate 20
param FatTree.servers[*].service_rate 40
param FatTree.edge[*].service_rate 40
param FatTree.aggregate[*].service_rate 40
param FatTree.core[*].service_rate 40
param FatTree.sdn.service_rate 40
param FatTree.vms[*].production_rate 4.4
param FatTree.vnf_chains "\"100\""
param FatTree.k 4
param FatTree.vm_k 2
param FatTree.p_sdn 0
param FatTree.vnf_chains "\"100\""
param FatTree.prob_service "\"EQUAL\""

statistic FatTree Proc_SDN:stats
field count 0
field mean -nan
field stddev nan
field min nan
field max nan
field sum 0
field sqrsum 0
attr interpolationmode none
attr source sdn_msg_processed
attr title "Queueing Time - SDN, stats"
statistic FatTree Proc_Core:stats
field count 14137134
field mean 0.078582417974288
field stddev 0.078398712614824
field min 3.49e-10
field max 1.089921220638
field sum 1110930.1729465
field sqrsum 174191.46167676
attr interpolationmode none
attr source core_msg_processed
attr title "Queueing Time - Core, stats"
statistic FatTree Proc_Agg:stats
field count 30630247
field mean 0.095359706864685
field stddev 0.095320618460313
field min 2.427e-09
field max 1.378692782741
field sum 2920891.3751129
field sqrsum 556842.38237635
attr interpolationmode none
attr source agg_msg_processed
attr title "Queueing Time - Aggregate, stats"
statistic FatTree Proc_Edge:stats
field count 34164369
field mean 0.14143488881193
field stddev 0.14154455439842
field min 6.199e-09
field max 2.173320661724
field sum 4832033.7308447
field sqrsum 1367896.5133854
attr interpolationmode none
attr source edge_msg_processed
attr title "Queueing Time - Edge, stats"
statistic FatTree Proc_Server:stats
field count 35930040
field mean 0.044112823961628
field stddev 0.04409811488585
field min 3.26e-10
field max 0.731301800622
field sum 1584975.5294543
field sqrsum 139788.87180734
attr interpolationmode none
attr source server_msg_processed
attr title "Queueing Time - Server, stats"
statistic FatTree Proc_VNF:stats
field count 18258737
field mean 0.064123820730517
field stddev 0.064102481156231
field min 5.39e-09
field max 1.160746028251
field sum 1170819.9781537
field sqrsum 150104.93537935
attr interpolationmode none
attr source vnf_msg_processed
attr title "Queueing Time - VNF, stats"
statistic FatTree Rec_SDN:stats
field count 1
field mean 0
field stddev -nan
field min 0
field max 0
field sum 0
field sqrsum 0
attr interpolationmode none
attr source sdn_received_count
attr title "Arrival Rate - SDN, stats"
statistic FatTree Rec_Core:stats
field count 4
field mean 27.261599968492
field stddev 0.010262589890923
field min 27.249071376986
field max 27.273708176291
field sum 109.04639987397
field sqrsum 2972.7796473307
attr interpolationmode none
attr source core_received_count
attr title "Arrival Rate - Core, stats"
statistic FatTree Rec_Agg:stats
field count 8
field mean 29.533184792402
field stddev 0.010692136563718
field min 29.518310344105
field max 29.547181834336
field sum 236.26547833921
field sqrsum 6977.6728321097
attr interpolationmode none
attr source agg_received_count
attr title "Arrival Rate - Aggregate, stats"
statistic FatTree Rec_Edge:stats
field count 8
field mean 32.940720636339
field stddev 0.014391957749125
field min 32.911192537611
field max 32.961684863299
field sum 263.52576509071
field sqrsum 8680.7300582297
attr interpolationmode none
attr source edge_received_count
attr title "Arrival Rate - Edge, stats"
statistic FatTree Rec_Server:stats
field count 16
field mean 17.321569833274
field stddev 0.01029317369953
field min 17.302877703119
field max 17.337588284481
field sum 277.14511733239
field sqrsum 4800.5900930653
attr interpolationmode none
attr source server_received_count
attr title "Arrival Rate - Server, stats"
statistic FatTree Rec_VNF:stats
field count 32
field mean 4.4011910767174
field stddev 0.0058112392507754
field min 4.3850417376931
field max 4.4115529083911
field sum 140.83811445496
field sqrsum 619.85649948641
attr interpolationmode none
attr source vnf_received_count
attr title "Arrival Rate - VNF, stats"
scalar FatTree Time_In_System:mean 0.63638717931772
attr interpolationmode none
attr source completed
attr title "Time in System, mean"

