version 2
run DifferentLengths-293-20180401-04:27:23-21613
attr configname DifferentLengths
attr datetime 20180401-04:27:23
attr experiment DifferentLengths
attr inifile omnetpp.ini
attr iterationvars "$0=3.6, $1=\"100.100.100.100.100.100\""
attr iterationvarsf 3.6,100.100.100.100.100.100-
attr measurement "$0=3.6, $1=\"100.100.100.100.100.100\""
attr network FatTree
attr processid 21613
attr repetition 0
attr replication #0
attr resultdir results
attr runnumber 293
attr seedset 293
param FatTree.vms[*].service_rate 20
param FatTree.servers[*].service_rate 40
param FatTree.edge[*].service_rate 40
param FatTree.aggregate[*].service_rate 40
param FatTree.core[*].service_rate 40
param FatTree.sdn.service_rate 40
param FatTree.vms[*].production_rate 3.6
param FatTree.vnf_chains "\"100.100.100.100.100.100\""
param FatTree.k 4
param FatTree.vm_k 2
param FatTree.p_sdn 0
param FatTree.vnf_chains "\"100\""
param FatTree.prob_service "\"EQUAL\""

statistic FatTree Proc_SDN:stats
field count 0
field mean -nan
field stddev nan
field min nan
field max nan
field sum 0
field sqrsum 0
attr interpolationmode none
attr source sdn_msg_processed
attr title "Queueing Time - SDN, stats"
statistic FatTree Proc_Core:stats
field count 12703331
field mean 0.37083546751978
field stddev 0.3733868157953
field min 2.2119e-08
field max 4.002547226449
field sum 4710845.6904435
field sqrsum 3518017.8954814
attr interpolationmode none
attr source core_msg_processed
attr title "Queueing Time - Core, stats"
statistic FatTree Proc_Agg:stats
field count 27229680
field mean 973.95778524344
field stddev 567.0037264414
field min 0.000155340952
field max 2052.8244528059
field sum 26520558825.688
field sqrsum 34584062076451
attr interpolationmode none
attr source agg_msg_processed
attr title "Queueing Time - Aggregate, stats"
statistic FatTree Proc_Edge:stats
field count 27233533
field mean 10405.171806202
field stddev 6005.6783895148
field min 0.000295667217
field max 20862.758417837
field sum 283369589754.87
field sqrsum 3.9307730074041e+15
attr interpolationmode none
attr source edge_msg_processed
attr title "Queueing Time - Edge, stats"
statistic FatTree Proc_Server:stats
field count 34292177
field mean 0.067473497158733
field stddev 0.067421987209708
field min 5.59e-10
field max 1.014077192632
field sum 2313813.1073763
field sqrsum 312003.8419032
attr interpolationmode none
attr source server_msg_processed
attr title "Queueing Time - Server, stats"
statistic FatTree Proc_VNF:stats
field count 12779556
field mean 0.065298491368371
field stddev 0.065321427844163
field min 9.2e-10
field max 1.011049784488
field sum 834485.72715761
field sqrsum 109019.60088322
attr interpolationmode none
attr source vnf_msg_processed
attr title "Queueing Time - VNF, stats"
statistic FatTree Rec_SDN:stats
field count 1
field mean 0
field stddev -nan
field min 0
field max 0
field sum 0
field sqrsum 0
attr interpolationmode none
attr source sdn_received_count
attr title "Arrival Rate - SDN, stats"
statistic FatTree Rec_Core:stats
field count 4
field mean 37.318719132452
field stddev 0.034067336542886
field min 37.283919187835
field max 37.365023093877
field sum 149.27487652981
field sqrsum 5570.7506724976
attr interpolationmode none
attr source core_received_count
attr title "Arrival Rate - Core, stats"
statistic FatTree Rec_Agg:stats
field count 8
field mean 40.943684476009
field stddev 0.013594641195429
field min 40.916603327144
field max 40.961338559005
field sum 327.54947580807
field sqrsum 13411.083681468
attr interpolationmode none
attr source agg_received_count
attr title "Arrival Rate - Aggregate, stats"
statistic FatTree Rec_Edge:stats
field count 8
field mean 52.935649622016
field stddev 0.018951774065173
field min 52.901732454992
field max 52.966773040321
field sum 423.48519697613
field sqrsum 22417.466521427
attr interpolationmode none
attr source edge_received_count
attr title "Arrival Rate - Edge, stats"
statistic FatTree Rec_Server:stats
field count 16
field mean 25.185026320729
field stddev 0.01931882940096
field min 25.152340048251
field max 25.214172669751
field sum 402.96042113167
field sqrsum 10148.574410671
attr interpolationmode none
attr source server_received_count
attr title "Arrival Rate - Server, stats"
statistic FatTree Rec_VNF:stats
field count 32
field mean 4.6928104278287
field stddev 0.0059295173623193
field min 4.6824991155204
field max 4.7054718967885
field sum 150.16993369052
field sqrsum 704.72012070368
attr interpolationmode none
attr source vnf_received_count
attr title "Arrival Rate - VNF, stats"
scalar FatTree Time_In_System:mean 40822.870117844
attr interpolationmode none
attr source completed
attr title "Time in System, mean"

