version 2
run DifferentLengths-76-20180331-20:55:01-21613
attr configname DifferentLengths
attr datetime 20180331-20:55:01
attr experiment DifferentLengths
attr inifile omnetpp.ini
attr iterationvars "$0=0.9, $1=\"100.100.100.100.100\""
attr iterationvarsf 0.9,100.100.100.100.100-
attr measurement "$0=0.9, $1=\"100.100.100.100.100\""
attr network FatTree
attr processid 21613
attr repetition 0
attr replication #0
attr resultdir results
attr runnumber 76
attr seedset 76
param FatTree.vms[*].service_rate 20
param FatTree.servers[*].service_rate 40
param FatTree.edge[*].service_rate 40
param FatTree.aggregate[*].service_rate 40
param FatTree.core[*].service_rate 40
param FatTree.sdn.service_rate 40
param FatTree.vms[*].production_rate 0.9
param FatTree.vnf_chains "\"100.100.100.100.100\""
param FatTree.k 4
param FatTree.vm_k 2
param FatTree.p_sdn 0
param FatTree.vnf_chains "\"100\""
param FatTree.prob_service "\"EQUAL\""

statistic FatTree Proc_SDN:stats
field count 0
field mean -nan
field stddev nan
field min nan
field max nan
field sum 0
field sqrsum 0
attr interpolationmode none
attr source sdn_msg_processed
attr title "Queueing Time - SDN, stats"
statistic FatTree Proc_Core:stats
field count 15326093
field mean 0.082353123214347
field stddev 0.082241292970703
field min 8.155e-09
field max 1.116978781093
field sum 1262151.6252235
field sqrsum 207602.14807146
attr interpolationmode none
attr source core_msg_processed
attr title "Queueing Time - Core, stats"
statistic FatTree Proc_Agg:stats
field count 33207347
field mean 0.10208500092326
field stddev 0.10198425682105
field min 7.474e-09
field max 1.54001616715
field sum 3389972.0491542
field sqrsum 691447.88678726
attr interpolationmode none
attr source agg_msg_processed
attr title "Queueing Time - Aggregate, stats"
statistic FatTree Proc_Edge:stats
field count 37037515
field mean 0.15821453295332
field stddev 0.15836269145911
field min 1.2881e-08
field max 2.072694755279
field sum 5859873.1374767
field sqrsum 1855971.3512491
attr interpolationmode none
attr source edge_msg_processed
attr title "Queueing Time - Edge, stats"
statistic FatTree Proc_Server:stats
field count 38950336
field mean 0.044834900502744
field stddev 0.044833232649333
field min 2.44e-10
field max 0.802068048997
field sum 1746334.4391084
field sqrsum 156587.63448251
attr interpolationmode none
attr source server_msg_processed
attr title "Queueing Time - Server, stats"
statistic FatTree Proc_VNF:stats
field count 19794020
field mean 0.064531904603649
field stddev 0.064511974544488
field min 5.402e-09
field max 1.135934335746
field sum 1277345.8103627
field sqrsum 164808.20450579
attr interpolationmode none
attr source vnf_msg_processed
attr title "Queueing Time - VNF, stats"
statistic FatTree Rec_SDN:stats
field count 1
field mean 0
field stddev -nan
field min 0
field max 0
field sum 0
field sqrsum 0
attr interpolationmode none
attr source sdn_received_count
attr title "Arrival Rate - SDN, stats"
statistic FatTree Rec_Core:stats
field count 4
field mean 27.873165078344
field stddev 0.0080855819190115
field min 27.865111998269
field max 27.88199655008
field sum 111.49266031338
field sqrsum 3107.6535220684
attr interpolationmode none
attr source core_received_count
attr title "Arrival Rate - Core, stats"
statistic FatTree Rec_Agg:stats
field count 8
field mean 30.196652363258
field stddev 0.016459255875205
field min 30.174811020629
field max 30.219863165982
field sum 241.57321890607
field sqrsum 7294.7044079295
attr interpolationmode none
attr source agg_received_count
attr title "Arrival Rate - Aggregate, stats"
statistic FatTree Rec_Edge:stats
field count 8
field mean 33.679578578406
field stddev 0.021352040260118
field min 33.646881581989
field max 33.709509374553
field sum 269.43662862725
field sqrsum 9074.5152971194
attr interpolationmode none
attr source edge_received_count
attr title "Arrival Rate - Edge, stats"
statistic FatTree Rec_Server:stats
field count 16
field mean 17.709481017214
field stddev 0.014391467683441
field min 17.681552124385
field max 17.733675266878
field sum 283.35169627543
field sqrsum 5018.0145931004
attr interpolationmode none
attr source server_received_count
attr title "Arrival Rate - Server, stats"
statistic FatTree Rec_VNF:stats
field count 32
field mean 4.4998553633369
field stddev 0.0041263012868821
field min 4.4891374739616
field max 4.5059565535768
field sum 143.99537162678
field sqrsum 647.95887312768
attr interpolationmode none
attr source vnf_received_count
attr title "Arrival Rate - VNF, stats"
scalar FatTree Time_In_System:mean 3.4191239802544
attr interpolationmode none
attr source completed
attr title "Time in System, mean"

