version 2
run DifferentLengths-334-20180401-05:57:00-21613
attr configname DifferentLengths
attr datetime 20180401-05:57:00
attr experiment DifferentLengths
attr inifile omnetpp.ini
attr iterationvars "$0=4.1, $1=\"100.100.100.100.100.100.100\""
attr iterationvarsf 4.1,100.100.100.100.100.100.100-
attr measurement "$0=4.1, $1=\"100.100.100.100.100.100.100\""
attr network FatTree
attr processid 21613
attr repetition 0
attr replication #0
attr resultdir results
attr runnumber 334
attr seedset 334
param FatTree.vms[*].service_rate 20
param FatTree.servers[*].service_rate 40
param FatTree.edge[*].service_rate 40
param FatTree.aggregate[*].service_rate 40
param FatTree.core[*].service_rate 40
param FatTree.sdn.service_rate 40
param FatTree.vms[*].production_rate 4.1
param FatTree.vnf_chains "\"100.100.100.100.100.100.100\""
param FatTree.k 4
param FatTree.vm_k 2
param FatTree.p_sdn 0
param FatTree.vnf_chains "\"100\""
param FatTree.prob_service "\"EQUAL\""

statistic FatTree Proc_SDN:stats
field count 0
field mean -nan
field stddev nan
field min nan
field max nan
field sum 0
field sqrsum 0
attr interpolationmode none
attr source sdn_msg_processed
attr title "Queueing Time - SDN, stats"
statistic FatTree Proc_Core:stats
field count 12686496
field mean 0.42728246990029
field stddev 0.43493957594913
field min 2.369e-09
field max 5.341852503151
field sum 5420717.3452601
field sqrsum 4716112.6432136
attr interpolationmode none
attr source core_msg_processed
attr title "Queueing Time - Core, stats"
statistic FatTree Proc_Agg:stats
field count 26990377
field mean 1636.5504108733
field stddev 948.20062441098
field min 0.000518923532
field max 3341.5120852737
field sum 44171112568.975
field sqrsum 96554879086589
attr interpolationmode none
attr source agg_msg_processed
attr title "Queueing Time - Aggregate, stats"
statistic FatTree Proc_Edge:stats
field count 26977650
field mean 11263.296642415
field stddev 6505.7937183387
field min 0.000131446376
field max 22592.576805263
field sum 303857274665.26
field sqrsum 4.5642731090208e+15
attr interpolationmode none
attr source edge_msg_processed
attr title "Queueing Time - Edge, stats"
statistic FatTree Proc_Server:stats
field count 34841898
field mean 0.070646628753156
field stddev 0.070747333183422
field min 1.682e-09
field max 0.995512041859
field sum 2461462.6330613
field sqrsum 348284.18237929
attr interpolationmode none
attr source server_msg_processed
attr title "Queueing Time - Server, stats"
statistic FatTree Proc_VNF:stats
field count 12330567
field mean 0.064779467723801
field stddev 0.064776689002199
field min 4.808e-09
field max 1.369346013126
field sum 798767.56699267
field sqrsum 103483.03244344
attr interpolationmode none
attr source vnf_msg_processed
attr title "Queueing Time - VNF, stats"
statistic FatTree Rec_SDN:stats
field count 1
field mean 0
field stddev -nan
field min 0
field max 0
field sum 0
field sqrsum 0
attr interpolationmode none
attr source sdn_received_count
attr title "Arrival Rate - SDN, stats"
statistic FatTree Rec_Core:stats
field count 4
field mean 37.620958077628
field stddev 0.01658787094112
field min 37.597706241352
field max 37.63536703981
field sum 150.48383231051
field sqrsum 5661.346772187
attr interpolationmode none
attr source core_received_count
attr title "Arrival Rate - Core, stats"
statistic FatTree Rec_Agg:stats
field count 8
field mean 41.639434960372
field stddev 0.025868512194255
field min 41.619203401516
field max 41.691796814606
field sum 333.11547968298
field sqrsum 13870.745034812
attr interpolationmode none
attr source agg_received_count
attr title "Arrival Rate - Aggregate, stats"
statistic FatTree Rec_Edge:stats
field count 8
field mean 54.586120265775
field stddev 0.026656050362544
field min 54.546880382657
field max 54.625736756877
field sum 436.6889621262
field sqrsum 23837.161179172
attr interpolationmode none
attr source edge_received_count
attr title "Arrival Rate - Edge, stats"
statistic FatTree Rec_Server:stats
field count 16
field mean 25.830201293581
field stddev 0.014820960959551
field min 25.808844358897
field max 25.868615308008
field sum 413.2832206973
field sqrsum 10675.192076784
attr interpolationmode none
attr source server_received_count
attr title "Arrival Rate - Server, stats"
statistic FatTree Rec_VNF:stats
field count 32
field mean 4.5706616596586
field stddev 0.0060975951485241
field min 4.5593052238087
field max 4.5857211602388
field sum 146.26117310908
field sqrsum 668.51148882701
attr interpolationmode none
attr source vnf_received_count
attr title "Arrival Rate - VNF, stats"
scalar FatTree Time_In_System:mean 41582.182148921
attr interpolationmode none
attr source completed
attr title "Time in System, mean"

