version 2
run DifferentLengths-268-20180401-03:33:19-21613
attr configname DifferentLengths
attr datetime 20180401-03:33:19
attr experiment DifferentLengths
attr inifile omnetpp.ini
attr iterationvars "$0=3.3, $1=\"100.100.100.100.100\""
attr iterationvarsf 3.3,100.100.100.100.100-
attr measurement "$0=3.3, $1=\"100.100.100.100.100\""
attr network FatTree
attr processid 21613
attr repetition 0
attr replication #0
attr resultdir results
attr runnumber 268
attr seedset 268
param FatTree.vms[*].service_rate 20
param FatTree.servers[*].service_rate 40
param FatTree.edge[*].service_rate 40
param FatTree.aggregate[*].service_rate 40
param FatTree.core[*].service_rate 40
param FatTree.sdn.service_rate 40
param FatTree.vms[*].production_rate 3.3
param FatTree.vnf_chains "\"100.100.100.100.100\""
param FatTree.k 4
param FatTree.vm_k 2
param FatTree.p_sdn 0
param FatTree.vnf_chains "\"100\""
param FatTree.prob_service "\"EQUAL\""

statistic FatTree Proc_SDN:stats
field count 0
field mean -nan
field stddev nan
field min nan
field max nan
field sum 0
field sqrsum 0
attr interpolationmode none
attr source sdn_msg_processed
attr title "Queueing Time - SDN, stats"
statistic FatTree Proc_Core:stats
field count 12744387
field mean 0.34357060275375
field stddev 0.34512674148711
field min 1.2509e-08
field max 3.678163656992
field sum 4378596.7233171
field sqrsum 3022372.3810933
attr interpolationmode none
attr source core_msg_processed
attr title "Queueing Time - Core, stats"
statistic FatTree Proc_Agg:stats
field count 27489806
field mean 403.89795589762
field stddev 245.28722554522
field min 4.6873439e-05
field max 926.30864069281
field sum 11103076451.422
field sqrsum 6138456625269.6
attr interpolationmode none
attr source agg_msg_processed
attr title "Queueing Time - Aggregate, stats"
statistic FatTree Proc_Edge:stats
field count 27500156
field mean 9705.8565284542
field stddev 5602.4196307343
field min 0.000292151019
field max 19475.968907225
field sum 266912568646.11
field sqrsum 3.4537653691898e+15
attr interpolationmode none
attr source edge_msg_processed
attr title "Queueing Time - Edge, stats"
statistic FatTree Proc_Server:stats
field count 33956968
field mean 0.065303715223803
field stddev 0.065300241499773
field min 2.939e-09
field max 0.993177556009
field sum 2217516.1681358
field sqrsum 289608.67876347
attr interpolationmode none
attr source server_msg_processed
attr title "Queueing Time - Server, stats"
statistic FatTree Proc_VNF:stats
field count 13180825
field mean 0.065754241416789
field stddev 0.065813977022463
field min 1.956e-09
field max 0.987427407285
field sum 866695.14912245
field sqrsum 114081.35196187
attr interpolationmode none
attr source vnf_msg_processed
attr title "Queueing Time - VNF, stats"
statistic FatTree Rec_SDN:stats
field count 1
field mean 0
field stddev -nan
field min 0
field max 0
field sum 0
field sqrsum 0
attr interpolationmode none
attr source sdn_received_count
attr title "Arrival Rate - SDN, stats"
statistic FatTree Rec_Core:stats
field count 4
field mean 37.072227001282
field stddev 0.034401384512425
field min 37.030676305034
field max 37.114417655048
field sum 148.28890800513
field sqrsum 5497.4036097042
attr interpolationmode none
attr source core_received_count
attr title "Arrival Rate - Core, stats"
statistic FatTree Rec_Agg:stats
field count 8
field mean 40.367723142513
field stddev 0.022288605939978
field min 40.335498372628
field max 40.396364150302
field sum 322.9417851401
field sqrsum 13036.428051158
attr interpolationmode none
attr source agg_received_count
attr title "Arrival Rate - Aggregate, stats"
statistic FatTree Rec_Edge:stats
field count 8
field mean 51.664227054798
field stddev 0.029525997180953
field min 51.620148526357
field max 51.704971986354
field sum 413.31381643838
field sqrsum 21353.544959849
attr interpolationmode none
attr source edge_received_count
attr title "Arrival Rate - Edge, stats"
statistic FatTree Rec_Server:stats
field count 16
field mean 24.694361419448
field stddev 0.018443333835977
field min 24.664684116816
field max 24.734334765862
field sum 395.10978271117
field sqrsum 9756.9888769779
attr interpolationmode none
attr source server_received_count
attr title "Arrival Rate - Server, stats"
statistic FatTree Rec_VNF:stats
field count 32
field mean 4.792713113777
field stddev 0.0081700613964899
field min 4.7692543074275
field max 4.8073143263099
field sum 153.36681964086
field sqrsum 735.04523695804
attr interpolationmode none
attr source vnf_received_count
attr title "Arrival Rate - VNF, stats"
scalar FatTree Time_In_System:mean 38876.105482613
attr interpolationmode none
attr source completed
attr title "Time in System, mean"

