version 2
run DifferentSDN_Large-1-20180326-13:11:29-30768
attr configname DifferentSDN_Large
attr datetime 20180326-13:11:29
attr experiment DifferentSDN_Large
attr inifile omnetpp.ini
attr iterationvars $0=10
attr iterationvarsf 10-
attr measurement $0=10
attr network FatTree
attr processid 30768
attr repetition 0
attr replication #0
attr resultdir results
attr runnumber 1
attr seedset 1
param FatTree.vms[*].service_rate exponential(0.5s)
param FatTree.servers[*].service_rate exponential(0.1s)
param FatTree.edge[*].service_rate exponential(0.1s)
param FatTree.aggregate[*].service_rate exponential(0.1s)
param FatTree.core[*].service_rate exponential(0.1s)
param FatTree.sdn.service_rate exponential(0.1s)
param FatTree.p_sdn 10
param FatTree.vms[*].production_rate exponential(5s)
param FatTree.vnf_chains "\"100\""
param FatTree.k 4
param FatTree.vm_k 2
param FatTree.p_sdn 0

scalar FatTree Time_In_System:mean 1.2915793884481
attr interpolationmode none
attr source completed
attr title "Time in System, mean"

