version 2
run DifferentLengths-179-20180401-00:25:21-21613
attr configname DifferentLengths
attr datetime 20180401-00:25:21
attr experiment DifferentLengths
attr inifile omnetpp.ini
attr iterationvars "$0=2.2, $1=\"100.100.100.100\""
attr iterationvarsf 2.2,100.100.100.100-
attr measurement "$0=2.2, $1=\"100.100.100.100\""
attr network FatTree
attr processid 21613
attr repetition 0
attr replication #0
attr resultdir results
attr runnumber 179
attr seedset 179
param FatTree.vms[*].service_rate 20
param FatTree.servers[*].service_rate 40
param FatTree.edge[*].service_rate 40
param FatTree.aggregate[*].service_rate 40
param FatTree.core[*].service_rate 40
param FatTree.sdn.service_rate 40
param FatTree.vms[*].production_rate 2.2
param FatTree.vnf_chains "\"100.100.100.100\""
param FatTree.k 4
param FatTree.vm_k 2
param FatTree.p_sdn 0
param FatTree.vnf_chains "\"100\""
param FatTree.prob_service "\"EQUAL\""

statistic FatTree Proc_SDN:stats
field count 0
field mean -nan
field stddev nan
field min nan
field max nan
field sum 0
field sqrsum 0
attr interpolationmode none
attr source sdn_msg_processed
attr title "Queueing Time - SDN, stats"
statistic FatTree Proc_Core:stats
field count 13341198
field mean 0.20385380588636
field stddev 0.20332237391565
field min 4.43e-09
field max 2.405345509692
field sum 2719653.9873835
field sqrsum 1105936.7363683
attr interpolationmode none
attr source core_msg_processed
attr title "Queueing Time - Core, stats"
statistic FatTree Proc_Agg:stats
field count 28904195
field mean 0.5093620848003
field stddev 0.51116768405555
field min 5.693e-09
field max 5.132182473403
field sum 14722701.024674
field sqrsum 15051631.943487
attr interpolationmode none
attr source agg_msg_processed
attr title "Queueing Time - Aggregate, stats"
statistic FatTree Proc_Edge:stats
field count 30407635
field mean 5589.5119482519
field stddev 3225.8719389254
field min 8.1275423e-05
field max 11317.749024707
field sum 169963839150.58
field sqrsum 1.2664443439106e+15
attr interpolationmode none
attr source edge_msg_processed
attr title "Queueing Time - Edge, stats"
statistic FatTree Proc_Server:stats
field count 34369927
field mean 0.057507679123685
field stddev 0.057537260911132
field min 5.47e-10
field max 0.937586128409
field sum 1976534.7334205
field sqrsum 227448.81607943
attr interpolationmode none
attr source server_msg_processed
attr title "Queueing Time - Server, stats"
statistic FatTree Proc_VNF:stats
field count 15475897
field mean 0.067037006169187
field stddev 0.067038516822723
field min 1.4e-10
field max 1.118327244592
field sum 1037457.8026627
field sqrsum 139099.26025449
attr interpolationmode none
attr source vnf_msg_processed
attr title "Queueing Time - VNF, stats"
statistic FatTree Rec_SDN:stats
field count 1
field mean 0
field stddev -nan
field min 0
field max 0
field sum 0
field sqrsum 0
attr interpolationmode none
attr source sdn_received_count
attr title "Arrival Rate - SDN, stats"
statistic FatTree Rec_Core:stats
field count 4
field mean 35.097055508282
field stddev 0.0093015853511453
field min 35.087174500504
field max 35.108525474712
field sum 140.38822203313
field sqrsum 4927.2134809641
attr interpolationmode none
attr source core_received_count
attr title "Arrival Rate - Core, stats"
statistic FatTree Rec_Agg:stats
field count 8
field mean 38.019909434259
field stddev 0.01465090660945
field min 37.999377931277
field max 38.036734243962
field sum 304.15927547408
field sqrsum 11564.109609658
attr interpolationmode none
attr source agg_received_count
attr title "Arrival Rate - Aggregate, stats"
statistic FatTree Rec_Edge:stats
field count 8
field mean 45.323476326734
field stddev 0.018572440924669
field min 45.301200652251
field max 45.348290652044
field sum 362.58781061387
field sqrsum 16433.742465269
attr interpolationmode none
attr source edge_received_count
attr title "Arrival Rate - Edge, stats"
statistic FatTree Rec_Server:stats
field count 16
field mean 22.604483695043
field stddev 0.01904037778876
field min 22.56888470749
field max 22.636715353002
field sum 361.67173912069
field sqrsum 8175.4083679513
attr interpolationmode none
attr source server_received_count
attr title "Arrival Rate - Server, stats"
statistic FatTree Rec_VNF:stats
field count 32
field mean 5.0891103260917
field stddev 0.0064841113757586
field min 5.0732819039546
field max 5.102945973098
field sum 162.85153043494
field sqrsum 828.77070851098
attr interpolationmode none
attr source vnf_received_count
attr title "Arrival Rate - VNF, stats"
scalar FatTree Time_In_System:mean 28549.145849453
attr interpolationmode none
attr source completed
attr title "Time in System, mean"

