version 2
run DifferentLengths-145-20180331-23:15:08-21613
attr configname DifferentLengths
attr datetime 20180331-23:15:08
attr experiment DifferentLengths
attr inifile omnetpp.ini
attr iterationvars "$0=1.8, $1=\"100.100\""
attr iterationvarsf 1.8,100.100-
attr measurement "$0=1.8, $1=\"100.100\""
attr network FatTree
attr processid 21613
attr repetition 0
attr replication #0
attr resultdir results
attr runnumber 145
attr seedset 145
param FatTree.vms[*].service_rate 20
param FatTree.servers[*].service_rate 40
param FatTree.edge[*].service_rate 40
param FatTree.aggregate[*].service_rate 40
param FatTree.core[*].service_rate 40
param FatTree.sdn.service_rate 40
param FatTree.vms[*].production_rate 1.8
param FatTree.vnf_chains "\"100.100\""
param FatTree.k 4
param FatTree.vm_k 2
param FatTree.p_sdn 0
param FatTree.vnf_chains "\"100\""
param FatTree.prob_service "\"EQUAL\""

statistic FatTree Proc_SDN:stats
field count 0
field mean -nan
field stddev nan
field min nan
field max nan
field sum 0
field sqrsum 0
attr interpolationmode none
attr source sdn_msg_processed
attr title "Queueing Time - SDN, stats"
statistic FatTree Proc_Core:stats
field count 15026988
field mean 0.056505738418197
field stddev 0.056553377591536
field min 1.397e-09
field max 0.891913773738
field sum 849111.05314138
field sqrsum 96040.226916229
attr interpolationmode none
attr source core_msg_processed
attr title "Queueing Time - Core, stats"
statistic FatTree Proc_Agg:stats
field count 32556855
field mean 0.06310004746581
field stddev 0.063091352918326
field min 7.28e-10
field max 1.007794572573
field sum 2054339.0958375
field sqrsum 259222.06429942
attr interpolationmode none
attr source agg_msg_processed
attr title "Queueing Time - Aggregate, stats"
statistic FatTree Proc_Edge:stats
field count 36311849
field mean 0.07643566805726
field stddev 0.076474074303401
field min 6.17e-10
field max 1.318320598828
field sum 2775520.4367094
field sqrsum 424510.75992817
attr interpolationmode none
attr source edge_msg_processed
attr title "Queueing Time - Edge, stats"
statistic FatTree Proc_Server:stats
field count 38190799
field mean 0.038698899311705
field stddev 0.038686702981039
field min 2.969e-09
field max 0.666025126664
field sum 1477941.8851346
field sqrsum 114353.40165111
attr interpolationmode none
attr source server_msg_processed
attr title "Queueing Time - Server, stats"
statistic FatTree Proc_VNF:stats
field count 19408793
field mean 0.060979452437058
field stddev 0.060986294626394
field min 4.89e-10
field max 0.991690259987
field sum 1183537.5696042
field sqrsum 144359.13903188
attr interpolationmode none
attr source vnf_msg_processed
attr title "Queueing Time - VNF, stats"
statistic FatTree Rec_SDN:stats
field count 1
field mean 0
field stddev -nan
field min 0
field max 0
field sum 0
field sqrsum 0
attr interpolationmode none
attr source sdn_received_count
attr title "Arrival Rate - SDN, stats"
statistic FatTree Rec_Core:stats
field count 4
field mean 22.281497751505
field stddev 0.010452471997849
field min 22.269546665628
field max 22.291847451186
field sum 89.125991006022
field sqrsum 1985.8608959639
attr interpolationmode none
attr source core_received_count
attr title "Arrival Rate - Core, stats"
statistic FatTree Rec_Agg:stats
field count 8
field mean 24.137089921042
field stddev 0.015168066898422
field min 24.11542301752
field max 24.155932157245
field sum 193.09671936834
field sqrsum 4660.7944893436
attr interpolationmode none
attr source agg_received_count
attr title "Arrival Rate - Aggregate, stats"
statistic FatTree Rec_Edge:stats
field count 8
field mean 26.920976755078
field stddev 0.016884235940112
field min 26.89404158752
field max 26.946899194142
field sum 215.36781404062
field sqrsum 5797.9139111215
attr interpolationmode none
attr source edge_received_count
attr title "Arrival Rate - Edge, stats"
statistic FatTree Rec_Server:stats
field count 16
field mean 14.156998700433
field stddev 0.012560829400519
field min 14.133935402975
field max 14.176034066776
field sum 226.51197920693
field sqrsum 3206.7321618816
attr interpolationmode none
attr source server_received_count
attr title "Arrival Rate - Server, stats"
statistic FatTree Rec_VNF:stats
field count 32
field mean 3.5973365305113
field stddev 0.0045471430920251
field min 3.5893470220149
field max 3.6079112397805
field sum 115.11476897636
field sqrsum 414.10720461187
attr interpolationmode none
attr source vnf_received_count
attr title "Arrival Rate - VNF, stats"
scalar FatTree Time_In_System:mean 0.85944980755824
attr interpolationmode none
attr source completed
attr title "Time in System, mean"

