version 2
run DifferentLengths-163-20180331-23:52:09-21613
attr configname DifferentLengths
attr datetime 20180331-23:52:09
attr experiment DifferentLengths
attr inifile omnetpp.ini
attr iterationvars "$0=2, $1=\"100.100.100.100\""
attr iterationvarsf 2,100.100.100.100-
attr measurement "$0=2, $1=\"100.100.100.100\""
attr network FatTree
attr processid 21613
attr repetition 0
attr replication #0
attr resultdir results
attr runnumber 163
attr seedset 163
param FatTree.vms[*].service_rate 20
param FatTree.servers[*].service_rate 40
param FatTree.edge[*].service_rate 40
param FatTree.aggregate[*].service_rate 40
param FatTree.core[*].service_rate 40
param FatTree.sdn.service_rate 40
param FatTree.vms[*].production_rate 2
param FatTree.vnf_chains "\"100.100.100.100\""
param FatTree.k 4
param FatTree.vm_k 2
param FatTree.p_sdn 0
param FatTree.vnf_chains "\"100\""
param FatTree.prob_service "\"EQUAL\""

statistic FatTree Proc_SDN:stats
field count 0
field mean -nan
field stddev nan
field min nan
field max nan
field sum 0
field sqrsum 0
attr interpolationmode none
attr source sdn_msg_processed
attr title "Queueing Time - SDN, stats"
statistic FatTree Proc_Core:stats
field count 13428709
field mean 0.18861049486465
field stddev 0.18871897813033
field min 1.8085e-08
field max 2.384762375313
field sum 2532795.4498834
field sqrsum 955973.26065277
attr interpolationmode none
attr source core_msg_processed
attr title "Queueing Time - Core, stats"
statistic FatTree Proc_Agg:stats
field count 29095979
field mean 0.41456604838698
field stddev 0.41701829774718
field min 6.345e-09
field max 4.848340198586
field sum 12062205.037981
field sqrsum 10060495.219581
attr interpolationmode none
attr source agg_msg_processed
attr title "Queueing Time - Aggregate, stats"
statistic FatTree Proc_Edge:stats
field count 30964598
field mean 4587.854744172
field stddev 2651.8857592262
field min 7.0540188e-05
field max 9222.9746981042
field sum 142061077835.68
field sqrsum 8.6951405886067e+14
attr interpolationmode none
attr source edge_msg_processed
attr title "Queueing Time - Edge, stats"
statistic FatTree Proc_Server:stats
field count 34459601
field mean 0.056344298284203
field stddev 0.056330892057904
field min 9.26e-10
field max 1.016585834363
field sum 1941602.0374986
field sqrsum 218744.35260763
attr interpolationmode none
attr source server_msg_processed
attr title "Queueing Time - Server, stats"
statistic FatTree Proc_VNF:stats
field count 15915023
field mean 0.067308323399969
field stddev 0.067291904185423
field min 1.292e-09
field max 1.183010032874
field sum 1071213.5150019
field sqrsum 144167.99418962
attr interpolationmode none
attr source vnf_msg_processed
attr title "Queueing Time - VNF, stats"
statistic FatTree Rec_SDN:stats
field count 1
field mean 0
field stddev -nan
field min 0
field max 0
field sum 0
field sqrsum 0
attr interpolationmode none
attr source sdn_received_count
attr title "Arrival Rate - SDN, stats"
statistic FatTree Rec_Core:stats
field count 4
field mean 34.687404816494
field stddev 0.014735688230608
field min 34.666853918651
field max 34.701394718797
field sum 138.74961926598
field sqrsum 4812.8648630348
attr interpolationmode none
attr source core_received_count
attr title "Arrival Rate - Core, stats"
statistic FatTree Rec_Agg:stats
field count 8
field mean 37.578654736467
field stddev 0.0086779840582096
field min 37.559488363667
field max 37.5901752247
field sum 300.62923789174
field sqrsum 11297.242861573
attr interpolationmode none
attr source agg_received_count
attr title "Arrival Rate - Aggregate, stats"
statistic FatTree Rec_Edge:stats
field count 8
field mean 44.185712857136
field stddev 0.016968818875664
field min 44.155231350097
field max 44.210922320121
field sum 353.48570285709
field sqrsum 15619.019781132
attr interpolationmode none
attr source edge_received_count
attr title "Arrival Rate - Edge, stats"
statistic FatTree Rec_Server:stats
field count 16
field mean 22.25290016182
field stddev 0.016630886644598
field min 22.216522799537
field max 22.291917420735
field sum 356.04640258913
field sqrsum 7923.069198587
attr interpolationmode none
attr source server_received_count
attr title "Arrival Rate - Server, stats"
statistic FatTree Rec_VNF:stats
field count 32
field mean 5.1387027982771
field stddev 0.0065160360735499
field min 5.1269272319695
field max 5.1547933815339
field sum 164.43848954487
field sqrsum 845.00184258919
attr interpolationmode none
attr source vnf_received_count
attr title "Arrival Rate - VNF, stats"
scalar FatTree Time_In_System:mean 25135.471194309
attr interpolationmode none
attr source completed
attr title "Time in System, mean"

