version 2
run DifferentChains_TwoLong-1-20180326-12:18:08-23717
attr configname DifferentChains_TwoLong
attr datetime 20180326-12:18:08
attr experiment DifferentChains_TwoLong
attr inifile omnetpp.ini
attr iterationvars $0=2.6
attr iterationvarsf 2.6-
attr measurement $0=2.6
attr network FatTree
attr processid 23717
attr repetition 0
attr replication #0
attr resultdir results
attr runnumber 1
attr seedset 1
param FatTree.vms[*].service_rate exponential(0.5s)
param FatTree.servers[*].service_rate exponential(0.1s)
param FatTree.edge[*].service_rate exponential(0.1s)
param FatTree.aggregate[*].service_rate exponential(0.1s)
param FatTree.core[*].service_rate exponential(0.1s)
param FatTree.sdn.service_rate exponential(0.1s)
param FatTree.vms[*].production_rate exponential(2.6s)
param FatTree.vnf_chains "\"100 100.100.100.100.100\""
param FatTree.vms[*].production_rate exponential(5s)
param FatTree.vnf_chains "\"100\""
param FatTree.k 4
param FatTree.vm_k 2
param FatTree.p_sdn 0

scalar FatTree Time_In_System:mean 11.771307870096
attr interpolationmode none
attr source completed
attr title "Time in System, mean"

