version 2
run DifferentProbServices_Near-10-20180329-13:51:12-22676
attr configname DifferentProbServices_Near
attr datetime 20180329-13:51:12
attr experiment DifferentProbServices_Near
attr inifile omnetpp.ini
attr iterationvars $0=5
attr iterationvarsf 5-
attr measurement $0=5
attr network FatTree
attr processid 22676
attr repetition 0
attr replication #0
attr resultdir results
attr runnumber 10
attr seedset 10
param FatTree.vms[*].service_rate exponential(0.5s)
param FatTree.servers[*].service_rate exponential(0.1s)
param FatTree.edge[*].service_rate exponential(0.1s)
param FatTree.aggregate[*].service_rate exponential(0.1s)
param FatTree.core[*].service_rate exponential(0.1s)
param FatTree.sdn.service_rate exponential(0.1s)
param FatTree.prob_service "\"10 20 30 40\""
param FatTree.vms[*].production_rate exponential(5s)
param FatTree.vnf_chains "\"100.100 100.100.100 100.100.100.100 100.100.100.100.100\""
param FatTree.vms[*].production_rate exponential(5s)
param FatTree.vnf_chains "\"100\""
param FatTree.prob_service "\"100\";"
param FatTree.k 4
param FatTree.vm_k 2
param FatTree.p_sdn 0

statistic FatTree Proc_SDN:stats
field count 0
field mean -nan
field stddev nan
field min nan
field max nan
field sum 0
field sqrsum 0
attr interpolationmode none
attr source sdn_msg_processed
attr title "Queueing Time - SDN, stats"
statistic FatTree Proc_Core:stats
field count 9922111
field mean 0.19852408124375
field stddev 0.19888943151063
field min 3.842e-09
field max 2.971781202551
field sum 1969777.9702735
field sqrsum 783537.32627423
attr interpolationmode none
attr source core_msg_processed
attr title "Queueing Time - Core, stats"
statistic FatTree Proc_Agg:stats
field count 21496268
field mean 0.21580526411211
field stddev 0.21580069932711
field min 1.2969e-08
field max 3.831716177316
field sum 4639007.7931646
field sqrsum 2002202.2057757
attr interpolationmode none
attr source agg_msg_processed
attr title "Queueing Time - Aggregate, stats"
statistic FatTree Proc_Edge:stats
field count 23975857
field mean 0.24912802802993
field stddev 0.24923658574164
field min 3.1968e-08
field max 3.675647111537
field sum 5973057.9747375
field sqrsum 2977409.3725522
attr interpolationmode none
attr source edge_msg_processed
attr title "Queueing Time - Edge, stats"
statistic FatTree Proc_Server:stats
field count 25217635
field mean 0.14598054714073
field stddev 0.14599768317243
field min 5.728e-09
field max 2.396579065218
field sum 3681284.1548952
field sqrsum 1074917.9015179
attr interpolationmode none
attr source server_msg_processed
attr title "Queueing Time - Server, stats"
statistic FatTree Proc_VNF:stats
field count 12815897
field mean 0.83464811181578
field stddev 0.83566817034556
field min 1.6298e-08
field max 15.370727994508
field sum 10696764.232275
field sqrsum 17877903.426055
attr interpolationmode none
attr source vnf_msg_processed
attr title "Queueing Time - VNF, stats"
statistic FatTree Rec_SDN:stats
field count 0
field mean -nan
field stddev nan
field min nan
field max nan
field sum 0
field sqrsum 0
attr interpolationmode none
attr source sdn_received_count
attr title "Arrival Rate - SDN, stats"
statistic FatTree Rec_Core:stats
field count 4
field mean 4.9527031739949
field stddev 0.0055104566965696
field min 4.945659056874
field max 4.9589945609133
field sum 19.81081269598
field sqrsum 98.117166014195
attr interpolationmode none
attr source core_received_count
attr title "Arrival Rate - Core, stats"
statistic FatTree Rec_Agg:stats
field count 8
field mean 5.365017881073
field stddev 0.0045518245853516
field min 5.3600739710656
field max 5.3726707213252
field sum 42.920143048584
field sqrsum 230.26747994761
attr interpolationmode none
attr source agg_received_count
attr title "Arrival Rate - Aggregate, stats"
statistic FatTree Rec_Edge:stats
field count 8
field mean 5.9838731702133
field stddev 0.0059028083424585
field min 5.9775822824529
field max 5.9935493472534
field sum 47.870985361707
field sqrsum 286.45414883961
attr interpolationmode none
attr source edge_received_count
attr title "Arrival Rate - Edge, stats"
statistic FatTree Rec_Server:stats
field count 16
field mean 3.1468964298709
field stddev 0.0041401662712573
field min 3.1417161685698
field max 3.1563055574028
field sum 50.350342877935
field sqrsum 158.44757136
attr interpolationmode none
attr source server_received_count
attr title "Arrival Rate - Server, stats"
statistic FatTree Rec_VNF:stats
field count 32
field mean 0.79964587195356
field stddev 0.001500807321685
field min 0.79563981735686
field max 0.8024742881349
field sum 25.588667902514
field sqrsum 20.461942482137
attr interpolationmode none
attr source vnf_received_count
attr title "Arrival Rate - VNF, stats"
scalar FatTree Time_In_System:mean 8.4146715745324
attr interpolationmode none
attr source completed
attr title "Time in System, mean"

