version 2
run DifferentLengths-179-20180404-06:07:43-32561
attr configname DifferentLengths
attr datetime 20180404-06:07:43
attr experiment DifferentLengths
attr inifile omnetpp.ini
attr iterationvars "$0=2.2, $1=\"100.100.100.100\""
attr iterationvarsf 2.2,100.100.100.100-
attr measurement "$0=2.2, $1=\"100.100.100.100\""
attr network FatTree
attr processid 32561
attr repetition 0
attr replication #0
attr resultdir results
attr runnumber 179
attr seedset 179
param FatTree.vms[*].service_rate 20
param FatTree.servers[*].service_rate 40
param FatTree.edge[*].service_rate 40
param FatTree.aggregate[*].service_rate 40
param FatTree.core[*].service_rate 40
param FatTree.sdn.service_rate 40
param FatTree.k 4
param FatTree.vm_k 2
param FatTree.p_sdn 0
param FatTree.vms[*].production_rate 2.2
param FatTree.vnf_chains "\"100.100.100.100\""
param FatTree.prob_service "\"EQUAL\""

scalar FatTree Time_In_System:mean 32541.759824123
attr interpolationmode none
attr source completed
attr title "Time in System, mean"

