version 2
run DifferentLengths-398-20180401-08:18:19-21613
attr configname DifferentLengths
attr datetime 20180401-08:18:19
attr experiment DifferentLengths
attr inifile omnetpp.ini
attr iterationvars "$0=4.9, $1=\"100.100.100.100.100.100.100\""
attr iterationvarsf 4.9,100.100.100.100.100.100.100-
attr measurement "$0=4.9, $1=\"100.100.100.100.100.100.100\""
attr network FatTree
attr processid 21613
attr repetition 0
attr replication #0
attr resultdir results
attr runnumber 398
attr seedset 398
param FatTree.vms[*].service_rate 20
param FatTree.servers[*].service_rate 40
param FatTree.edge[*].service_rate 40
param FatTree.aggregate[*].service_rate 40
param FatTree.core[*].service_rate 40
param FatTree.sdn.service_rate 40
param FatTree.vms[*].production_rate 4.9
param FatTree.vnf_chains "\"100.100.100.100.100.100.100\""
param FatTree.k 4
param FatTree.vm_k 2
param FatTree.p_sdn 0
param FatTree.vnf_chains "\"100\""
param FatTree.prob_service "\"EQUAL\""

statistic FatTree Proc_SDN:stats
field count 0
field mean -nan
field stddev nan
field min nan
field max nan
field sum 0
field sqrsum 0
attr interpolationmode none
attr source sdn_msg_processed
attr title "Queueing Time - SDN, stats"
statistic FatTree Proc_Core:stats
field count 12515711
field mean 0.4868248971404
field stddev 0.4925084793167
field min 2.1973e-08
field max 5.520910596584
field sum 6092959.720214
field sqrsum 6002072.7064599
attr interpolationmode none
attr source core_msg_processed
attr title "Queueing Time - Core, stats"
statistic FatTree Proc_Agg:stats
field count 26366074
field mean 2470.0578476115
field stddev 1426.1710872523
field min 0.000102471858
field max 5010.2546937969
field sum 65125727994.407
field sqrsum 2.144919580294e+14
attr interpolationmode none
attr source agg_msg_processed
attr title "Queueing Time - Aggregate, stats"
statistic FatTree Proc_Edge:stats
field count 26375495
field mean 12254.678383853
field stddev 7081.3251954568
field min 0.000298861158
field max 24562.404848028
field sum 323223208439.91
field sqrsum 5.2836000044058e+15
attr interpolationmode none
attr source edge_msg_processed
attr title "Queueing Time - Edge, stats"
statistic FatTree Proc_Server:stats
field count 35328775
field mean 0.075633082847545
field stddev 0.075540468030643
field min 4.95e-10
field max 1.053599251026
field sum 2672024.1664773
field sqrsum 403692.20957612
attr interpolationmode none
attr source server_msg_processed
attr title "Queueing Time - Server, stats"
statistic FatTree Proc_VNF:stats
field count 11633729
field mean 0.064151257971007
field stddev 0.064160839055124
field min 8.056e-09
field max 1.144322866206
field sum 746318.35024378
field sqrsum 95768.820059085
attr interpolationmode none
attr source vnf_msg_processed
attr title "Queueing Time - VNF, stats"
statistic FatTree Rec_SDN:stats
field count 1
field mean 0
field stddev -nan
field min 0
field max 0
field sum 0
field sqrsum 0
attr interpolationmode none
attr source sdn_received_count
attr title "Arrival Rate - SDN, stats"
statistic FatTree Rec_Core:stats
field count 4
field mean 37.964231859123
field stddev 0.012446166294371
field min 37.948907600135
field max 37.978646126486
field sum 151.85692743649
field sqrsum 5765.1320673343
attr interpolationmode none
attr source core_received_count
attr title "Arrival Rate - Core, stats"
statistic FatTree Rec_Agg:stats
field count 8
field mean 42.540056503106
field stddev 0.019850364336216
field min 42.520026070757
field max 42.568413358838
field sum 340.32045202485
field sqrsum 14477.254016559
attr interpolationmode none
attr source agg_received_count
attr title "Arrival Rate - Aggregate, stats"
statistic FatTree Rec_Edge:stats
field count 8
field mean 56.943199217658
field stddev 0.019545847071251
field min 56.906726753272
field max 56.95970039915
field sum 455.54559374126
field sqrsum 25940.226171416
attr interpolationmode none
attr source edge_received_count
attr title "Arrival Rate - Edge, stats"
statistic FatTree Rec_Server:stats
field count 16
field mean 26.790754834031
field stddev 0.023018341578295
field min 26.758607104849
field max 26.829865515807
field sum 428.65207734449
field sqrsum 11483.920660895
attr interpolationmode none
attr source server_received_count
attr title "Arrival Rate - Server, stats"
statistic FatTree Rec_VNF:stats
field count 32
field mean 4.4110862057135
field stddev 0.0076104779034164
field min 4.3950896904109
field max 4.42920830979
field sum 141.15475858283
field sqrsum 622.64760395613
attr interpolationmode none
attr source vnf_received_count
attr title "Arrival Rate - VNF, stats"
scalar FatTree Time_In_System:mean 40794.582283429
attr interpolationmode none
attr source completed
attr title "Time in System, mean"

