version 2
run DifferentLengths-107-20180331-21:57:30-21613
attr configname DifferentLengths
attr datetime 20180331-21:57:30
attr experiment DifferentLengths
attr inifile omnetpp.ini
attr iterationvars "$0=1.3, $1=\"100.100.100.100\""
attr iterationvarsf 1.3,100.100.100.100-
attr measurement "$0=1.3, $1=\"100.100.100.100\""
attr network FatTree
attr processid 21613
attr repetition 0
attr replication #0
attr resultdir results
attr runnumber 107
attr seedset 107
param FatTree.vms[*].service_rate 20
param FatTree.servers[*].service_rate 40
param FatTree.edge[*].service_rate 40
param FatTree.aggregate[*].service_rate 40
param FatTree.core[*].service_rate 40
param FatTree.sdn.service_rate 40
param FatTree.vms[*].production_rate 1.3
param FatTree.vnf_chains "\"100.100.100.100\""
param FatTree.k 4
param FatTree.vm_k 2
param FatTree.p_sdn 0
param FatTree.vnf_chains "\"100\""
param FatTree.prob_service "\"EQUAL\""

statistic FatTree Proc_SDN:stats
field count 0
field mean -nan
field stddev nan
field min nan
field max nan
field sum 0
field sqrsum 0
attr interpolationmode none
attr source sdn_msg_processed
attr title "Queueing Time - SDN, stats"
statistic FatTree Proc_Core:stats
field count 15113612
field mean 0.1280060205935
field stddev 0.12759143273812
field min 7.002e-09
field max 1.749743558842
field sum 1934633.3289142
field sqrsum 493687.85801289
attr interpolationmode none
attr source core_msg_processed
attr title "Queueing Time - Core, stats"
statistic FatTree Proc_Agg:stats
field count 32745410
field mean 0.19669837721422
field stddev 0.19678605083756
field min 7.125e-09
field max 2.85881466003
field sum 6440969.0082142
field sqrsum 2534985.9223653
attr interpolationmode none
attr source agg_msg_processed
attr title "Queueing Time - Aggregate, stats"
statistic FatTree Proc_Edge:stats
field count 36521671
field mean 0.93948043393868
field stddev 0.93763279891433
field min 4.3114e-08
field max 10.179268466253
field sum 34311395.319246
field sqrsum 64343103.052569
attr interpolationmode none
attr source edge_msg_processed
attr title "Queueing Time - Edge, stats"
statistic FatTree Proc_Server:stats
field count 38411385
field mean 0.051233317376796
field stddev 0.051232059547795
field min 2.474e-09
field max 1.004324605308
field sum 1967942.6785873
field sqrsum 201643.51042811
attr interpolationmode none
attr source server_msg_processed
attr title "Queueing Time - Server, stats"
statistic FatTree Proc_VNF:stats
field count 19520991
field mean 0.067551794232626
field stddev 0.067512072278619
field min 1.024e-09
field max 1.003537271918
field sum 1318677.9672489
field sqrsum 178053.39071726
attr interpolationmode none
attr source vnf_msg_processed
attr title "Queueing Time - VNF, stats"
statistic FatTree Rec_SDN:stats
field count 1
field mean 0
field stddev -nan
field min 0
field max 0
field sum 0
field sqrsum 0
attr interpolationmode none
attr source sdn_received_count
attr title "Arrival Rate - SDN, stats"
statistic FatTree Rec_Core:stats
field count 4
field mean 32.220963553188
field stddev 0.014338854652084
field min 32.206715963485
field max 32.240852190676
field sum 128.88385421275
field sqrsum 4152.7625859916
attr interpolationmode none
attr source core_received_count
attr title "Arrival Rate - Core, stats"
statistic FatTree Rec_Agg:stats
field count 8
field mean 34.905261258725
field stddev 0.012121046495568
field min 34.887727321645
field max 34.923995464099
field sum 279.2420900698
field sqrsum 9747.0191367574
attr interpolationmode none
attr source agg_received_count
attr title "Arrival Rate - Aggregate, stats"
statistic FatTree Rec_Edge:stats
field count 8
field mean 38.931083698839
field stddev 0.019542434649228
field min 38.896333480052
field max 38.950927566107
field sum 311.44866959071
field sqrsum 12125.036897075
attr interpolationmode none
attr source edge_received_count
attr title "Arrival Rate - Edge, stats"
statistic FatTree Rec_Server:stats
field count 16
field mean 20.472466214316
field stddev 0.013788343307585
field min 20.444351048806
field max 20.491662512323
field sum 327.55945942906
field sqrsum 6705.9528181173
attr interpolationmode none
attr source server_received_count
attr title "Arrival Rate - Server, stats"
statistic FatTree Rec_VNF:stats
field count 32
field mean 5.2021407971274
field stddev 0.0063303261795952
field min 5.1881522351292
field max 5.2154151675126
field sum 166.46850550808
field sqrsum 865.99384620432
attr interpolationmode none
attr source vnf_received_count
attr title "Arrival Rate - VNF, stats"
scalar FatTree Time_In_System:mean 9.4200351265475
attr interpolationmode none
attr source completed
attr title "Time in System, mean"

