version 2
run DifferentLengths-36-20180331-19:34:59-21613
attr configname DifferentLengths
attr datetime 20180331-19:34:59
attr experiment DifferentLengths
attr inifile omnetpp.ini
attr iterationvars "$0=0.4, $1=\"100.100.100.100.100\""
attr iterationvarsf 0.4,100.100.100.100.100-
attr measurement "$0=0.4, $1=\"100.100.100.100.100\""
attr network FatTree
attr processid 21613
attr repetition 0
attr replication #0
attr resultdir results
attr runnumber 36
attr seedset 36
param FatTree.vms[*].service_rate 20
param FatTree.servers[*].service_rate 40
param FatTree.edge[*].service_rate 40
param FatTree.aggregate[*].service_rate 40
param FatTree.core[*].service_rate 40
param FatTree.sdn.service_rate 40
param FatTree.vms[*].production_rate 0.4
param FatTree.vnf_chains "\"100.100.100.100.100\""
param FatTree.k 4
param FatTree.vm_k 2
param FatTree.p_sdn 0
param FatTree.vnf_chains "\"100\""
param FatTree.prob_service "\"EQUAL\""

statistic FatTree Proc_SDN:stats
field count 0
field mean -nan
field stddev nan
field min nan
field max nan
field sum 0
field sqrsum 0
attr interpolationmode none
attr source sdn_msg_processed
attr title "Queueing Time - SDN, stats"
statistic FatTree Proc_Core:stats
field count 15644808
field mean 0.036256764994666
field stddev 0.036321385003123
field min 1.001e-09
field max 0.615153519376
field sum 567230.12704267
field sqrsum 41205.231668867
attr interpolationmode none
attr source core_msg_processed
attr title "Queueing Time - Core, stats"
statistic FatTree Proc_Agg:stats
field count 33897332
field mean 0.037617375015341
field stddev 0.037624099533847
field min 2.79e-10
field max 0.656165457744
field sum 1275128.6498635
field sqrsum 95951.134599088
attr interpolationmode none
attr source agg_msg_processed
attr title "Queueing Time - Aggregate, stats"
statistic FatTree Proc_Edge:stats
field count 37810861
field mean 0.039962904240221
field stddev 0.039943780192155
field min 1.86e-10
field max 0.724986845229
field sum 1511031.8173833
field sqrsum 120712.65778685
attr interpolationmode none
attr source edge_msg_processed
attr title "Queueing Time - Edge, stats"
statistic FatTree Proc_Server:stats
field count 39769118
field mean 0.031133019561166
field stddev 0.031138207496446
field min 4.77e-10
field max 0.552115769411
field sum 1238132.7286243
field sqrsum 77106.467724875
attr interpolationmode none
attr source server_msg_processed
attr title "Queueing Time - Server, stats"
statistic FatTree Proc_VNF:stats
field count 20210769
field mean 0.055550256615501
field stddev 0.055532212118461
field min 2.829e-09
field max 1.014286187324
field sum 1122713.4043466
field sqrsum 124693.52133371
attr interpolationmode none
attr source vnf_msg_processed
attr title "Queueing Time - VNF, stats"
statistic FatTree Rec_SDN:stats
field count 1
field mean 0
field stddev -nan
field min 0
field max 0
field sum 0
field sqrsum 0
attr interpolationmode none
attr source sdn_received_count
attr title "Arrival Rate - SDN, stats"
statistic FatTree Rec_Core:stats
field count 4
field mean 12.380646424651
field stddev 0.0056910749221061
field min 12.376516327222
field max 12.388674751614
field sum 49.522585698603
field sqrsum 613.12172073388
attr interpolationmode none
attr source core_received_count
attr title "Arrival Rate - Core, stats"
statistic FatTree Rec_Agg:stats
field count 8
field mean 13.412464494913
field stddev 0.0042944523980412
field min 13.405943309271
field max 13.419684449673
field sum 107.2997159593
field sqrsum 1439.1537597146
attr interpolationmode none
attr source agg_received_count
attr title "Arrival Rate - Aggregate, stats"
statistic FatTree Rec_Edge:stats
field count 8
field mean 14.960965350595
field stddev 0.0079759905908239
field min 14.944710461489
field max 14.969239394218
field sum 119.68772280476
field sqrsum 1790.6443190885
attr interpolationmode none
attr source edge_received_count
attr title "Arrival Rate - Edge, stats"
statistic FatTree Rec_Server:stats
field count 16
field mean 7.8679038571118
field stddev 0.005729867955196
field min 7.8583970755559
field max 7.8758132825343
field sum 125.88646171379
field sqrsum 990.46307014689
attr interpolationmode none
attr source server_received_count
attr title "Arrival Rate - Server, stats"
statistic FatTree Rec_VNF:stats
field count 32
field mean 1.999244724517
field stddev 0.0021792447449023
field min 1.9934466422524
field max 2.0030758864597
field sum 63.975831184544
field sqrsum 127.90349021463
attr interpolationmode none
attr source vnf_received_count
attr title "Arrival Rate - VNF, stats"
scalar FatTree Time_In_System:mean 1.413660077664
attr interpolationmode none
attr source completed
attr title "Time in System, mean"

