version 2
run DifferentLengths-224-20191029-19:52:41-2954
attr configname DifferentLengths
attr datetime 20191029-19:52:41
attr experiment DifferentLengths
attr inifile omnetpp.ini
attr iterationvars "$0=11.2, $1=\"100.100\""
attr iterationvarsf 11.2,100.100-
attr measurement "$0=11.2, $1=\"100.100\""
attr network FatTree
attr processid 2954
attr repetition 0
attr replication #0
attr resultdir results
attr runnumber 224
attr seedset 224
param FatTree.vms[*].service_rate 20
param FatTree.servers[*].service_rate 40
param FatTree.edge[*].service_rate 40
param FatTree.aggregate[*].service_rate 40
param FatTree.core[*].service_rate 40
param FatTree.sdn.service_rate 40
param FatTree.k 4
param FatTree.vm_k 2
param FatTree.p_sdn 0
param FatTree.vms[*].production_rate 11.2
param FatTree.vnf_chains "\"100.100\""
param FatTree.prob_service "\"EQUAL\""

scalar FatTree Time_In_System:mean 3230.0521041988
attr interpolationmode none
attr source completed
attr title "Time in System, mean"

