version 2
run DifferentLengths-360-20180401-06:54:17-21613
attr configname DifferentLengths
attr datetime 20180401-06:54:17
attr experiment DifferentLengths
attr inifile omnetpp.ini
attr iterationvars "$0=4.5, $1=\"100\""
attr iterationvarsf 4.5,100-
attr measurement "$0=4.5, $1=\"100\""
attr network FatTree
attr processid 21613
attr repetition 0
attr replication #0
attr resultdir results
attr runnumber 360
attr seedset 360
param FatTree.vms[*].service_rate 20
param FatTree.servers[*].service_rate 40
param FatTree.edge[*].service_rate 40
param FatTree.aggregate[*].service_rate 40
param FatTree.core[*].service_rate 40
param FatTree.sdn.service_rate 40
param FatTree.vms[*].production_rate 4.5
param FatTree.vnf_chains "\"100\""
param FatTree.k 4
param FatTree.vm_k 2
param FatTree.p_sdn 0
param FatTree.vnf_chains "\"100\""
param FatTree.prob_service "\"EQUAL\""

statistic FatTree Proc_SDN:stats
field count 0
field mean -nan
field stddev nan
field min nan
field max nan
field sum 0
field sqrsum 0
attr interpolationmode none
attr source sdn_msg_processed
attr title "Queueing Time - SDN, stats"
statistic FatTree Proc_Core:stats
field count 14116388
field mean 0.082492426623496
field stddev 0.08250728385366
field min 2.571e-08
field max 1.287941487234
field sum 1164495.1012788
field sqrsum 192158.65204337
attr interpolationmode none
attr source core_msg_processed
attr title "Queueing Time - Core, stats"
statistic FatTree Proc_Agg:stats
field count 30585854
field mean 0.10185289270599
field stddev 0.10174977984281
field min 2.317e-09
field max 1.493817919233
field sum 3115257.7057831
field sqrsum 633953.88627793
attr interpolationmode none
attr source agg_msg_processed
attr title "Queueing Time - Aggregate, stats"
statistic FatTree Proc_Edge:stats
field count 34115743
field mean 0.15805045404268
field stddev 0.15770099965394
field min 9.9e-11
field max 1.991481830302
field sum 5392008.6711533
field sqrsum 1700654.4564565
attr interpolationmode none
attr source edge_msg_processed
attr title "Queueing Time - Edge, stats"
statistic FatTree Proc_Server:stats
field count 35880276
field mean 0.044842129625007
field stddev 0.04481827241959
field min 5.2e-11
field max 0.788673378577
field sum 1608947.987373
field sqrsum 144220.55682724
attr interpolationmode none
attr source server_msg_processed
attr title "Queueing Time - Server, stats"
statistic FatTree Proc_VNF:stats
field count 18233935
field mean 0.064489410022539
field stddev 0.064501953073548
field min 4.31e-10
field max 1.065621038772
field sum 1175895.7105393
field sqrsum 151695.1385894
attr interpolationmode none
attr source vnf_msg_processed
attr title "Queueing Time - VNF, stats"
statistic FatTree Rec_SDN:stats
field count 1
field mean 0
field stddev -nan
field min 0
field max 0
field sum 0
field sqrsum 0
attr interpolationmode none
attr source sdn_received_count
attr title "Arrival Rate - SDN, stats"
statistic FatTree Rec_Core:stats
field count 4
field mean 27.873562157303
field stddev 0.0058125223642866
field min 27.867703663541
field max 27.88075939686
field sum 111.49424862921
field sqrsum 3107.7419707045
attr interpolationmode none
attr source core_received_count
attr title "Arrival Rate - Core, stats"
statistic FatTree Rec_Agg:stats
field count 8
field mean 30.196704714772
field stddev 0.014759856714296
field min 30.177952400899
field max 30.219654924748
field sum 241.57363771818
field sqrsum 7294.7293300227
attr interpolationmode none
attr source agg_received_count
attr title "Arrival Rate - Aggregate, stats"
statistic FatTree Rec_Edge:stats
field count 8
field mean 33.681683140852
field stddev 0.012728856170209
field min 33.668019245727
field max 33.698877533734
field sum 269.45346512681
field sqrsum 9075.6473677723
attr interpolationmode none
attr source edge_received_count
attr title "Arrival Rate - Edge, stats"
statistic FatTree Rec_Server:stats
field count 16
field mean 17.711869469939
field stddev 0.008685443187417
field min 17.697753402562
field max 17.725025905374
field sum 283.38991151902
field sqrsum 5019.3662534761
attr interpolationmode none
attr source server_received_count
attr title "Arrival Rate - Server, stats"
statistic FatTree Rec_VNF:stats
field count 32
field mean 4.5004820242029
field stddev 0.0063013450375618
field min 4.4871046858384
field max 4.5110994334618
field sum 144.01542477449
field sqrsum 648.14006132097
attr interpolationmode none
attr source vnf_received_count
attr title "Arrival Rate - VNF, stats"
scalar FatTree Time_In_System:mean 0.68315240787536
attr interpolationmode none
attr source completed
attr title "Time in System, mean"

