version 2
run DifferentLengths-37-20180331-19:36:59-21613
attr configname DifferentLengths
attr datetime 20180331-19:36:59
attr experiment DifferentLengths
attr inifile omnetpp.ini
attr iterationvars "$0=0.4, $1=\"100.100.100.100.100.100\""
attr iterationvarsf 0.4,100.100.100.100.100.100-
attr measurement "$0=0.4, $1=\"100.100.100.100.100.100\""
attr network FatTree
attr processid 21613
attr repetition 0
attr replication #0
attr resultdir results
attr runnumber 37
attr seedset 37
param FatTree.vms[*].service_rate 20
param FatTree.servers[*].service_rate 40
param FatTree.edge[*].service_rate 40
param FatTree.aggregate[*].service_rate 40
param FatTree.core[*].service_rate 40
param FatTree.sdn.service_rate 40
param FatTree.vms[*].production_rate 0.4
param FatTree.vnf_chains "\"100.100.100.100.100.100\""
param FatTree.k 4
param FatTree.vm_k 2
param FatTree.p_sdn 0
param FatTree.vnf_chains "\"100\""
param FatTree.prob_service "\"EQUAL\""

statistic FatTree Proc_SDN:stats
field count 0
field mean -nan
field stddev nan
field min nan
field max nan
field sum 0
field sqrsum 0
attr interpolationmode none
attr source sdn_msg_processed
attr title "Queueing Time - SDN, stats"
statistic FatTree Proc_Core:stats
field count 15698485
field mean 0.039774138775467
field stddev 0.039735820279674
field min 6.69e-10
field max 0.795331292491
field sum 624393.72095458
field sqrsum 49621.614830478
attr interpolationmode none
attr source core_msg_processed
attr title "Queueing Time - Core, stats"
statistic FatTree Proc_Agg:stats
field count 34014572
field mean 0.041882308661125
field stddev 0.041894505424042
field min 3.26e-10
field max 0.779174855738
field sum 1424608.8034801
field sqrsum 119366.56579396
attr interpolationmode none
attr source agg_msg_processed
attr title "Queueing Time - Aggregate, stats"
statistic FatTree Proc_Edge:stats
field count 37941155
field mean 0.045367336976197
field stddev 0.045376266584774
field min 5.24e-10
field max 0.774155295225
field sum 1721289.1641511
field sqrsum 156211.35293035
attr interpolationmode none
attr source edge_msg_processed
attr title "Queueing Time - Edge, stats"
statistic FatTree Proc_Server:stats
field count 39902517
field mean 0.032724430439889
field stddev 0.032723168683243
field min 1.7e-11
field max 0.642135291439
field sum 1305787.141943
field sqrsum 85458.98481314
attr interpolationmode none
attr source server_msg_processed
attr title "Queueing Time - Server, stats"
statistic FatTree Proc_VNF:stats
field count 20277437
field mean 0.056840232596411
field stddev 0.056812124902573
field min 7.136e-09
field max 0.938894435672
field sum 1152574.2355391
field sqrsum 130960.39565029
attr interpolationmode none
attr source vnf_msg_processed
attr title "Queueing Time - VNF, stats"
statistic FatTree Rec_SDN:stats
field count 1
field mean 0
field stddev -nan
field min 0
field max 0
field sum 0
field sqrsum 0
attr interpolationmode none
attr source sdn_received_count
attr title "Arrival Rate - SDN, stats"
statistic FatTree Rec_Core:stats
field count 4
field mean 14.86435471483
field stddev 0.007254826674788
field min 14.857816609837
field max 14.874485226823
field sum 59.457418859319
field sqrsum 883.79632225066
attr interpolationmode none
attr source core_received_count
attr title "Arrival Rate - Core, stats"
statistic FatTree Rec_Agg:stats
field count 8
field mean 16.103612984535
field stddev 0.0043921217753563
field min 16.099081287143
field max 16.110057349861
field sum 128.82890387628
field sqrsum 2074.6109442806
attr interpolationmode none
attr source agg_received_count
attr title "Arrival Rate - Aggregate, stats"
statistic FatTree Rec_Edge:stats
field count 8
field mean 17.962585133538
field stddev 0.0063267382667068
field min 17.952729212486
field max 17.970640116763
field sum 143.7006810683
field sqrsum 2581.2359976301
attr interpolationmode none
attr source edge_received_count
attr title "Arrival Rate - Edge, stats"
statistic FatTree Rec_Server:stats
field count 16
field mean 9.4455777946405
field stddev 0.0071749424443242
field min 9.4350242705681
field max 9.4624303402138
field sum 151.12924471425
field sqrsum 1427.5038101907
attr interpolationmode none
attr source server_received_count
attr title "Arrival Rate - Server, stats"
statistic FatTree Rec_VNF:stats
field count 32
field mean 2.4000003371341
field stddev 0.0028568815953217
field min 2.3948003895465
field max 2.4056514660438
field sum 76.800010788292
field sqrsum 184.32030479875
attr interpolationmode none
attr source vnf_received_count
attr title "Arrival Rate - VNF, stats"
scalar FatTree Time_In_System:mean 1.8430269008726
attr interpolationmode none
attr source completed
attr title "Time in System, mean"

