version 2
run DifferentLengths-70-20180331-20:42:59-21613
attr configname DifferentLengths
attr datetime 20180331-20:42:59
attr experiment DifferentLengths
attr inifile omnetpp.ini
attr iterationvars "$0=0.8, $1=\"100.100.100.100.100.100.100\""
attr iterationvarsf 0.8,100.100.100.100.100.100.100-
attr measurement "$0=0.8, $1=\"100.100.100.100.100.100.100\""
attr network FatTree
attr processid 21613
attr repetition 0
attr replication #0
attr resultdir results
attr runnumber 70
attr seedset 70
param FatTree.vms[*].service_rate 20
param FatTree.servers[*].service_rate 40
param FatTree.edge[*].service_rate 40
param FatTree.aggregate[*].service_rate 40
param FatTree.core[*].service_rate 40
param FatTree.sdn.service_rate 40
param FatTree.vms[*].production_rate 0.8
param FatTree.vnf_chains "\"100.100.100.100.100.100.100\""
param FatTree.k 4
param FatTree.vm_k 2
param FatTree.p_sdn 0
param FatTree.vnf_chains "\"100\""
param FatTree.prob_service "\"EQUAL\""

statistic FatTree Proc_SDN:stats
field count 0
field mean -nan
field stddev nan
field min nan
field max nan
field sum 0
field sqrsum 0
attr interpolationmode none
attr source sdn_msg_processed
attr title "Queueing Time - SDN, stats"
statistic FatTree Proc_Core:stats
field count 13856474
field mean 0.14678772454211
field stddev 0.14630551146684
field min 7.305e-09
field max 1.85996234883
field sum 2033960.2886369
field sqrsum 595162.4012975
attr interpolationmode none
attr source core_msg_processed
attr title "Queueing Time - Core, stats"
statistic FatTree Proc_Agg:stats
field count 30023178
field mean 0.24890186724888
field stddev 0.24995515562474
field min 3.981e-09
field max 3.189718483881
field sum 7472825.0649456
field sqrsum 3735775.5498584
attr interpolationmode none
attr source agg_msg_processed
attr title "Queueing Time - Aggregate, stats"
statistic FatTree Proc_Edge:stats
field count 33380688
field mean 350.35525328591
field stddev 206.22521549875
field min 9.879111e-06
field max 826.76054753443
field sum 11695099399.098
field sqrsum 5517081392248.1
attr interpolationmode none
attr source edge_msg_processed
attr title "Queueing Time - Edge, stats"
statistic FatTree Proc_Server:stats
field count 35234191
field mean 0.052942902065387
field stddev 0.052920090633488
field min 3.853e-09
field max 0.798519929303
field sum 1865400.3234661
field sqrsum 197434.32390511
attr interpolationmode none
attr source server_msg_processed
attr title "Queueing Time - Server, stats"
statistic FatTree Proc_VNF:stats
field count 17795734
field mean 0.068180069426776
field stddev 0.06813302627964
field min 1.482e-08
field max 1.087193076097
field sum 1213314.3796204
field sqrsum 165333.59576517
attr interpolationmode none
attr source vnf_msg_processed
attr title "Queueing Time - VNF, stats"
statistic FatTree Rec_SDN:stats
field count 1
field mean 0
field stddev -nan
field min 0
field max 0
field sum 0
field sqrsum 0
attr interpolationmode none
attr source sdn_received_count
attr title "Arrival Rate - SDN, stats"
statistic FatTree Rec_Core:stats
field count 4
field mean 33.208082434502
field stddev 0.02966535294808
field min 33.17085645018
field max 33.241488279828
field sum 132.83232973801
field sqrsum 4411.1095960061
attr interpolationmode none
attr source core_received_count
attr title "Arrival Rate - Core, stats"
statistic FatTree Rec_Agg:stats
field count 8
field mean 35.976468142795
field stddev 0.015551182521127
field min 35.951284942946
field max 35.994960107967
field sum 287.81174514236
field sqrsum 10354.451773111
attr interpolationmode none
attr source agg_received_count
attr title "Arrival Rate - Aggregate, stats"
statistic FatTree Rec_Edge:stats
field count 8
field mean 40.268601607251
field stddev 0.019077539851111
field min 40.233588859041
field max 40.29925498731
field sum 322.14881285801
field sqrsum 12972.484750896
attr interpolationmode none
attr source edge_received_count
attr title "Arrival Rate - Edge, stats"
statistic FatTree Rec_Server:stats
field count 16
field mean 21.110345118543
field stddev 0.014206454068231
field min 21.087311046451
field max 21.136853024684
field sum 337.76552189669
field sqrsum 7130.3497637339
attr interpolationmode none
attr source server_received_count
attr title "Arrival Rate - Server, stats"
statistic FatTree Rec_VNF:stats
field count 32
field mean 5.3311037248175
field stddev 0.0062652474376139
field min 5.3158600161634
field max 5.3434397900364
field sum 170.59531919416
field sqrsum 909.4625584455
attr interpolationmode none
attr source vnf_received_count
attr title "Arrival Rate - VNF, stats"
scalar FatTree Time_In_System:mean 4410.9543622834
attr interpolationmode none
attr source completed
attr title "Time in System, mean"

