version 2
run DifferentRT_Base-17-20180326-14:19:31-2290
attr configname DifferentRT_Base
attr datetime 20180326-14:19:31
attr experiment DifferentRT_Base
attr inifile omnetpp.ini
attr iterationvars $0=5
attr iterationvarsf 5-
attr measurement $0=5
attr network FatTree
attr processid 2290
attr repetition 0
attr replication #0
attr resultdir results
attr runnumber 17
attr seedset 17
param FatTree.vms[*].service_rate exponential(0.5s)
param FatTree.servers[*].service_rate exponential(0.1s)
param FatTree.edge[*].service_rate exponential(0.1s)
param FatTree.aggregate[*].service_rate exponential(0.1s)
param FatTree.core[*].service_rate exponential(0.1s)
param FatTree.sdn.service_rate exponential(0.1s)
param FatTree.vms[*].production_rate exponential(5s)
param FatTree.vnf_chains "\"100.100\""
param FatTree.vms[*].production_rate exponential(5s)
param FatTree.vnf_chains "\"100\""
param FatTree.k 4
param FatTree.vm_k 2
param FatTree.p_sdn 0

scalar FatTree Time_In_System:mean 2.9162046755664
attr interpolationmode none
attr source completed
attr title "Time in System, mean"

