version 2
run DifferentLengths-83-20180331-21:09:04-21613
attr configname DifferentLengths
attr datetime 20180331-21:09:04
attr experiment DifferentLengths
attr inifile omnetpp.ini
attr iterationvars "$0=1, $1=\"100.100.100.100\""
attr iterationvarsf 1,100.100.100.100-
attr measurement "$0=1, $1=\"100.100.100.100\""
attr network FatTree
attr processid 21613
attr repetition 0
attr replication #0
attr resultdir results
attr runnumber 83
attr seedset 83
param FatTree.vms[*].service_rate 20
param FatTree.servers[*].service_rate 40
param FatTree.edge[*].service_rate 40
param FatTree.aggregate[*].service_rate 40
param FatTree.core[*].service_rate 40
param FatTree.sdn.service_rate 40
param FatTree.vms[*].production_rate 1
param FatTree.vnf_chains "\"100.100.100.100\""
param FatTree.k 4
param FatTree.vm_k 2
param FatTree.p_sdn 0
param FatTree.vnf_chains "\"100\""
param FatTree.prob_service "\"EQUAL\""

statistic FatTree Proc_SDN:stats
field count 0
field mean -nan
field stddev nan
field min nan
field max nan
field sum 0
field sqrsum 0
attr interpolationmode none
attr source sdn_msg_processed
attr title "Queueing Time - SDN, stats"
statistic FatTree Proc_Core:stats
field count 15420879
field mean 0.065614925009844
field stddev 0.065548325481078
field min 7.52e-09
field max 0.937234122982
field sum 1011839.8191709
field sqrsum 132648.87570614
attr interpolationmode none
attr source core_msg_processed
attr title "Queueing Time - Core, stats"
statistic FatTree Proc_Agg:stats
field count 33412118
field mean 0.076004039439872
field stddev 0.076060597422633
field min 4.901e-09
field max 1.141038157255
field sum 2539455.9342417
field sqrsum 386305.17206739
attr interpolationmode none
attr source agg_msg_processed
attr title "Queueing Time - Aggregate, stats"
statistic FatTree Proc_Edge:stats
field count 37265968
field mean 0.099189385361265
field stddev 0.099112381318341
field min 6.05e-10
field max 1.587980997413
field sum 3696388.4608126
field sqrsum 732715.9364074
attr interpolationmode none
attr source edge_msg_processed
attr title "Queueing Time - Edge, stats"
statistic FatTree Proc_Server:stats
field count 39191872
field mean 0.04119061844287
field stddev 0.041167977151349
field min 1.601e-09
field max 0.668977013508
field sum 1614337.4456138
field sqrsum 132918.03254724
attr interpolationmode none
attr source server_msg_processed
attr title "Queueing Time - Server, stats"
statistic FatTree Proc_VNF:stats
field count 19917110
field mean 0.062474720290393
field stddev 0.062460265356216
field min 1.16e-10
field max 1.215652986983
field sum 1244315.876243
field sqrsum 155440.59989448
attr interpolationmode none
attr source vnf_msg_processed
attr title "Queueing Time - VNF, stats"
statistic FatTree Rec_SDN:stats
field count 1
field mean 0
field stddev -nan
field min 0
field max 0
field sum 0
field sqrsum 0
attr interpolationmode none
attr source sdn_received_count
attr title "Arrival Rate - SDN, stats"
statistic FatTree Rec_Core:stats
field count 4
field mean 24.765478072358
field stddev 0.0092512257381266
field min 24.755768378607
field max 24.773954381259
field sum 99.06191228943
field sqrsum 2453.3158733652
attr interpolationmode none
attr source core_received_count
attr title "Arrival Rate - Core, stats"
statistic FatTree Rec_Agg:stats
field count 8
field mean 26.82945688084
field stddev 0.0091993201966206
field min 26.810459060426
field max 26.838666314981
field sum 214.63565504672
field sqrsum 5758.5586445595
attr interpolationmode none
attr source agg_received_count
attr title "Arrival Rate - Aggregate, stats"
statistic FatTree Rec_Edge:stats
field count 8
field mean 29.924025089343
field stddev 0.011073177873258
field min 29.906396358231
field max 29.936036137897
field sum 239.39220071474
field sqrsum 7163.5790786877
attr interpolationmode none
attr source edge_received_count
attr title "Arrival Rate - Edge, stats"
statistic FatTree Rec_Server:stats
field count 16
field mean 15.735250896124
field stddev 0.012319650461226
field min 15.71921368114
field max 15.764167989356
field sum 251.76401433799
field sqrsum 3961.5722088305
attr interpolationmode none
attr source server_received_count
attr title "Arrival Rate - Server, stats"
statistic FatTree Rec_VNF:stats
field count 32
field mean 3.9982863913717
field stddev 0.0040239511725173
field min 3.9919143044747
field max 4.0100810354883
field sum 127.9451645239
field sqrsum 511.56191211538
attr interpolationmode none
attr source vnf_received_count
attr title "Arrival Rate - VNF, stats"
scalar FatTree Time_In_System:mean 2.0296703560207
attr interpolationmode none
attr source completed
attr title "Time in System, mean"

