version 2
run DifferentSDN_Small-4-20180326-13:39:30-513
attr configname DifferentSDN_Small
attr datetime 20180326-13:39:30
attr experiment DifferentSDN_Small
attr inifile omnetpp.ini
attr iterationvars $0=40
attr iterationvarsf 40-
attr measurement $0=40
attr network FatTree
attr processid 513
attr repetition 0
attr replication #0
attr resultdir results
attr runnumber 4
attr seedset 4
param FatTree.vms[*].service_rate exponential(1s)
param FatTree.servers[*].service_rate exponential(0.2s)
param FatTree.edge[*].service_rate exponential(0.2s)
param FatTree.aggregate[*].service_rate exponential(0.2s)
param FatTree.core[*].service_rate exponential(0.2s)
param FatTree.sdn.service_rate exponential(0.2s)
param FatTree.p_sdn 40
param FatTree.vms[*].production_rate exponential(5s)
param FatTree.vnf_chains "\"100\""
param FatTree.k 4
param FatTree.vm_k 2
param FatTree.p_sdn 0

scalar FatTree Time_In_System:mean 3.1849496778486
attr interpolationmode none
attr source completed
attr title "Time in System, mean"

