version 2
run FilteringVNFs-23-20180331-09:06:22-21250
attr configname FilteringVNFs
attr datetime 20180331-09:06:22
attr experiment FilteringVNFs
attr inifile omnetpp.ini
attr iterationvars "$0=0.3, $1=\"100.0\""
attr iterationvarsf 0.3,100.0-
attr measurement "$0=0.3, $1=\"100.0\""
attr network FatTree
attr processid 21250
attr repetition 0
attr replication #0
attr resultdir results
attr runnumber 23
attr seedset 23
param FatTree.vms[*].service_rate 20
param FatTree.servers[*].service_rate 40
param FatTree.edge[*].service_rate 40
param FatTree.aggregate[*].service_rate 40
param FatTree.core[*].service_rate 40
param FatTree.sdn.service_rate 40
param FatTree.vms[*].production_rate 0.3
param FatTree.vnf_chains "\"100.0\""
param FatTree.k 4
param FatTree.vm_k 2
param FatTree.p_sdn 0
param FatTree.vnf_chains "\"100\""
param FatTree.prob_service "\"EQUAL\""

statistic FatTree Proc_SDN:stats
field count 0
field mean -nan
field stddev nan
field min nan
field max nan
field sum 0
field sqrsum 0
attr interpolationmode none
attr source sdn_msg_processed
attr title "Queueing Time - SDN, stats"
statistic FatTree Proc_Core:stats
field count 15318070
field mean 0.026221397997422
field stddev 0.026218969889784
field min 1.11e-10
field max 0.394914428151
field sum 401661.21002236
field sqrsum 21062.285745818
attr interpolationmode none
attr source core_msg_processed
attr title "Queueing Time - Core, stats"
statistic FatTree Proc_Agg:stats
field count 33191179
field mean 0.026324988594544
field stddev 0.026325531014847
field min 1.16e-10
field max 0.517256251465
field sum 873757.40861446
field sqrsum 46004.254836597
attr interpolationmode none
attr source agg_msg_processed
attr title "Queueing Time - Aggregate, stats"
statistic FatTree Proc_Edge:stats
field count 37022627
field mean 0.026490503581491
field stddev 0.026493186498986
field min 1.065e-09
field max 0.437528920078
field sum 980748.03313969
field sqrsum 51966.280665569
attr interpolationmode none
attr source edge_msg_processed
attr title "Queueing Time - Edge, stats"
statistic FatTree Proc_Server:stats
field count 38937529
field mean 0.025767128964994
field stddev 0.025768700736536
field min 1.461e-09
field max 0.446132313562
field sum 1003308.3313212
field sqrsum 51707.903704746
attr interpolationmode none
attr source server_msg_processed
attr title "Queueing Time - Server, stats"
statistic FatTree Proc_VNF:stats
field count 19788007
field mean 0.050760974591686
field stddev 0.05077493416892
field min 7.45e-10
field max 0.853738215201
field sum 1004458.5205471
field sqrsum 102002.63179037
attr interpolationmode none
attr source vnf_msg_processed
attr title "Queueing Time - VNF, stats"
statistic FatTree Rec_SDN:stats
field count 1
field mean 0
field stddev -nan
field min 0
field max 0
field sum 0
field sqrsum 0
attr interpolationmode none
attr source sdn_received_count
attr title "Arrival Rate - SDN, stats"
statistic FatTree Rec_Core:stats
field count 4
field mean 1.857787180457
field stddev 0.00053270935479493
field min 1.8571688911395
field max 1.8584287556806
field sum 7.431148721828
field sqrsum 13.805493682819
attr interpolationmode none
attr source core_received_count
attr title "Arrival Rate - Core, stats"
statistic FatTree Rec_Agg:stats
field count 8
field mean 2.0127259596543
field stddev 0.00058890845783097
field min 2.0117019255522
field max 2.013542967498
field sum 16.101807677234
field sqrsum 32.408528737022
attr interpolationmode none
attr source agg_received_count
attr title "Arrival Rate - Aggregate, stats"
statistic FatTree Rec_Edge:stats
field count 8
field mean 2.2450663628252
field stddev 0.00084956309299643
field min 2.2440991487594
field max 2.2467479205708
field sum 17.960530902601
field sqrsum 40.322588840215
attr interpolationmode none
attr source edge_received_count
attr title "Arrival Rate - Edge, stats"
statistic FatTree Rec_Server:stats
field count 16
field mean 1.1805933135287
field stddev 0.00066314413866946
field min 1.1794714058528
field max 1.1821774221833
field sum 18.88949301646
field sqrsum 22.300815747582
attr interpolationmode none
attr source server_received_count
attr title "Arrival Rate - Server, stats"
statistic FatTree Rec_VNF:stats
field count 32
field mean 0.29998806745394
field stddev 0.00036713245459426
field min 0.29940823929763
field max 0.30057107923022
field sum 9.5996181585261
field sqrsum 2.8797750780454
attr interpolationmode none
attr source vnf_received_count
attr title "Arrival Rate - VNF, stats"
scalar FatTree Time_In_System:mean -nan
attr interpolationmode none
attr source completed
attr title "Time in System, mean"

