version 2
run FilteringVNFs-71-20180331-10:42:23-21250
attr configname FilteringVNFs
attr datetime 20180331-10:42:23
attr experiment FilteringVNFs
attr inifile omnetpp.ini
attr iterationvars "$0=1.1, $1=\"100.0\""
attr iterationvarsf 1.1,100.0-
attr measurement "$0=1.1, $1=\"100.0\""
attr network FatTree
attr processid 21250
attr repetition 0
attr replication #0
attr resultdir results
attr runnumber 71
attr seedset 71
param FatTree.vms[*].service_rate 20
param FatTree.servers[*].service_rate 40
param FatTree.edge[*].service_rate 40
param FatTree.aggregate[*].service_rate 40
param FatTree.core[*].service_rate 40
param FatTree.sdn.service_rate 40
param FatTree.vms[*].production_rate 1.1
param FatTree.vnf_chains "\"100.0\""
param FatTree.k 4
param FatTree.vm_k 2
param FatTree.p_sdn 0
param FatTree.vnf_chains "\"100\""
param FatTree.prob_service "\"EQUAL\""

statistic FatTree Proc_SDN:stats
field count 0
field mean -nan
field stddev nan
field min nan
field max nan
field sum 0
field sqrsum 0
attr interpolationmode none
attr source sdn_msg_processed
attr title "Queueing Time - SDN, stats"
statistic FatTree Proc_Core:stats
field count 14997628
field mean 0.030121784251351
field stddev 0.030130018064412
field min 7.28e-10
field max 0.468583342018
field sum 451755.31489802
field sqrsum 27222.791706099
attr interpolationmode none
attr source core_msg_processed
attr title "Queueing Time - Core, stats"
statistic FatTree Proc_Agg:stats
field count 32494207
field mean 0.030658013637353
field stddev 0.030661951495197
field min 1.298e-09
field max 0.527052437231
field sum 996207.84134097
field sqrsum 61091.352584387
attr interpolationmode none
attr source agg_msg_processed
attr title "Queueing Time - Aggregate, stats"
statistic FatTree Proc_Edge:stats
field count 36242423
field mean 0.03147388034391
field stddev 0.03146393121602
field min 2.91e-10
field max 0.50481268929
field sum 1140689.6848754
field sqrsum 71781.166164965
attr interpolationmode none
attr source edge_msg_processed
attr title "Queueing Time - Edge, stats"
statistic FatTree Proc_Server:stats
field count 38116760
field mean 0.028022594071899
field stddev 0.028024885653743
field min 2.62e-10
field max 0.514409572071
field sum 1068130.492816
field sqrsum 59868.469263659
attr interpolationmode none
attr source server_msg_processed
attr title "Queueing Time - Server, stats"
statistic FatTree Proc_VNF:stats
field count 19370909
field mean 0.052925022662206
field stddev 0.052921162345469
field min 1.63e-10
field max 0.913434338625
field sum 1025205.7978125
field sqrsum 108510.16241512
attr interpolationmode none
attr source vnf_msg_processed
attr title "Queueing Time - VNF, stats"
statistic FatTree Rec_SDN:stats
field count 1
field mean 0
field stddev -nan
field min 0
field max 0
field sum 0
field sqrsum 0
attr interpolationmode none
attr source sdn_received_count
attr title "Arrival Rate - SDN, stats"
statistic FatTree Rec_Core:stats
field count 4
field mean 6.8116423942037
field stddev 0.0017616897558632
field min 6.8093256154747
field max 6.81342051393
field sum 27.246569576815
field sqrsum 185.5938977367
attr interpolationmode none
attr source core_received_count
attr title "Arrival Rate - Core, stats"
statistic FatTree Rec_Agg:stats
field count 8
field mean 7.3791310080466
field stddev 0.0015832583508458
field min 7.3769704676792
field max 7.3808509925686
field sum 59.033048064373
field sqrsum 435.61261301827
attr interpolationmode none
attr source agg_received_count
attr title "Arrival Rate - Aggregate, stats"
statistic FatTree Rec_Edge:stats
field count 8
field mean 8.2303157855948
field stddev 0.0027514271130438
field min 8.2273758701444
field max 8.235471197348
field sum 65.842526284759
field sqrsum 541.90483643735
attr interpolationmode none
attr source edge_received_count
attr title "Arrival Rate - Edge, stats"
statistic FatTree Rec_Server:stats
field count 16
field mean 4.327979748427
field stddev 0.0023857823994326
field min 4.3241982350575
field max 4.3333981311436
field sum 69.247675974832
field sqrsum 299.70262462408
attr interpolationmode none
attr source server_received_count
attr title "Arrival Rate - Server, stats"
statistic FatTree Rec_VNF:stats
field count 32
field mean 1.099738210233
field stddev 0.0011881309802634
field min 1.0976180919999
field max 1.1018056434372
field sum 35.191622727456
field sqrsum 38.7016159548
attr interpolationmode none
attr source vnf_received_count
attr title "Arrival Rate - VNF, stats"
scalar FatTree Time_In_System:mean -nan
attr interpolationmode none
attr source completed
attr title "Time in System, mean"

