version 2
run FilteringVNFs-63-20191029-14:06:00-14683
attr configname FilteringVNFs
attr datetime 20191029-14:06:00
attr experiment FilteringVNFs
attr inifile omnetpp.ini
attr iterationvars "$0=10, $1=\"100.40\""
attr iterationvarsf 10,100.40-
attr measurement "$0=10, $1=\"100.40\""
attr network FatTree
attr processid 14683
attr repetition 0
attr replication #0
attr resultdir results
attr runnumber 63
attr seedset 63
param FatTree.vms[*].service_rate 20
param FatTree.servers[*].service_rate 40
param FatTree.edge[*].service_rate 40
param FatTree.aggregate[*].service_rate 40
param FatTree.core[*].service_rate 40
param FatTree.sdn.service_rate 40
param FatTree.k 4
param FatTree.vm_k 2
param FatTree.p_sdn 0
param FatTree.vms[*].production_rate 10
param FatTree.vnf_chains "\"100.40\""
param FatTree.prob_service "\"EQUAL\""

scalar FatTree Time_In_System:mean 1.5313815606146
attr interpolationmode none
attr source completed
attr title "Time in System, mean"

