version 2
run FilteringVNFs-218-20180331-15:37:11-21250
attr configname FilteringVNFs
attr datetime 20180331-15:37:11
attr experiment FilteringVNFs
attr inifile omnetpp.ini
attr iterationvars "$0=3.6, $1=\"100.60\""
attr iterationvarsf 3.6,100.60-
attr measurement "$0=3.6, $1=\"100.60\""
attr network FatTree
attr processid 21250
attr repetition 0
attr replication #0
attr resultdir results
attr runnumber 218
attr seedset 218
param FatTree.vms[*].service_rate 20
param FatTree.servers[*].service_rate 40
param FatTree.edge[*].service_rate 40
param FatTree.aggregate[*].service_rate 40
param FatTree.core[*].service_rate 40
param FatTree.sdn.service_rate 40
param FatTree.vms[*].production_rate 3.6
param FatTree.vnf_chains "\"100.60\""
param FatTree.k 4
param FatTree.vm_k 2
param FatTree.p_sdn 0
param FatTree.vnf_chains "\"100\""
param FatTree.prob_service "\"EQUAL\""

statistic FatTree Proc_SDN:stats
field count 0
field mean -nan
field stddev nan
field min nan
field max nan
field sum 0
field sqrsum 0
attr interpolationmode none
attr source sdn_msg_processed
attr title "Queueing Time - SDN, stats"
statistic FatTree Proc_Core:stats
field count 12916838
field mean 0.15693833949176
field stddev 0.15756847564399
field min 1.4948e-08
field max 2.064083512431
field sum 2027147.1072041
field sqrsum 638834.06325787
attr interpolationmode none
attr source core_msg_processed
attr title "Queueing Time - Core, stats"
statistic FatTree Proc_Agg:stats
field count 27985354
field mean 0.27814544757217
field stddev 0.27714973490007
field min 5.757e-09
field max 3.503173845682
field sum 7783998.8137957
field sqrsum 4314694.0845035
attr interpolationmode none
attr source agg_msg_processed
attr title "Queueing Time - Aggregate, stats"
statistic FatTree Proc_Edge:stats
field count 30745603
field mean 1495.4542538628
field stddev 859.43860891814
field min 0.000333725561
field max 3115.43434207
field sum 45978642793.926
field sqrsum 91468726154351
attr interpolationmode none
attr source edge_msg_processed
attr title "Queueing Time - Edge, stats"
statistic FatTree Proc_Server:stats
field count 32897491
field mean 0.053760871752847
field stddev 0.053790558509946
field min 1.909e-09
field max 0.838431251215
field sum 1768597.7946414
field sqrsum 190267.7524057
attr interpolationmode none
attr source server_msg_processed
attr title "Queueing Time - Server, stats"
statistic FatTree Proc_VNF:stats
field count 16232998
field mean 0.067961096322784
field stddev 0.067973035154849
field min 9.86e-09
field max 1.360784970019
field sum 1103212.3406856
field sqrsum 149977.38012681
attr interpolationmode none
attr source vnf_msg_processed
attr title "Queueing Time - VNF, stats"
statistic FatTree Rec_SDN:stats
field count 1
field mean 0
field stddev -nan
field min 0
field max 0
field sum 0
field sqrsum 0
attr interpolationmode none
attr source sdn_received_count
attr title "Arrival Rate - SDN, stats"
statistic FatTree Rec_Core:stats
field count 4
field mean 33.608058224775
field stddev 0.025199554293677
field min 33.582695121363
field max 33.632526282272
field sum 134.4322328991
field sqrsum 4518.008215612
attr interpolationmode none
attr source core_received_count
attr title "Arrival Rate - Core, stats"
statistic FatTree Rec_Agg:stats
field count 8
field mean 36.407283099528
field stddev 0.023272899260587
field min 36.379037115671
field max 36.445718036294
field sum 291.25826479623
field sqrsum 10603.925892908
attr interpolationmode none
attr source agg_received_count
attr title "Arrival Rate - Aggregate, stats"
statistic FatTree Rec_Edge:stats
field count 8
field mean 41.282677552532
field stddev 0.024711550157422
field min 41.244870969221
field max 41.312800791119
field sum 330.26142042026
field sqrsum 13634.080001876
attr interpolationmode none
attr source edge_received_count
attr title "Arrival Rate - Edge, stats"
statistic FatTree Rec_Server:stats
field count 16
field mean 21.398822117941
field stddev 0.013103059035736
field min 21.369824841911
field max 21.418865032011
field sum 342.38115388706
field sqrsum 7326.555983917
attr interpolationmode none
attr source server_received_count
attr title "Arrival Rate - Server, stats"
statistic FatTree Rec_VNF:stats
field count 32
field mean 5.2795372797139
field stddev 0.0078372132867532
field min 5.2635464648616
field max 5.2993691164589
field sum 168.94519295084
field sqrsum 891.9543484917
attr interpolationmode none
attr source vnf_received_count
attr title "Arrival Rate - VNF, stats"
scalar FatTree Time_In_System:mean 5339.761053568
attr interpolationmode none
attr source completed
attr title "Time in System, mean"

