version 2
run FilteringVNFs-12-20191029-13:48:57-14683
attr configname FilteringVNFs
attr datetime 20191029-13:48:57
attr experiment FilteringVNFs
attr inifile omnetpp.ini
attr iterationvars "$0=2, $1=\"100.100\""
attr iterationvarsf 2,100.100-
attr measurement "$0=2, $1=\"100.100\""
attr network FatTree
attr processid 14683
attr repetition 0
attr replication #0
attr resultdir results
attr runnumber 12
attr seedset 12
param FatTree.vms[*].service_rate 20
param FatTree.servers[*].service_rate 40
param FatTree.edge[*].service_rate 40
param FatTree.aggregate[*].service_rate 40
param FatTree.core[*].service_rate 40
param FatTree.sdn.service_rate 40
param FatTree.k 4
param FatTree.vm_k 2
param FatTree.p_sdn 0
param FatTree.vms[*].production_rate 2
param FatTree.vnf_chains "\"100.100\""
param FatTree.prob_service "\"EQUAL\""

scalar FatTree Time_In_System:mean 0.50207895717401
attr interpolationmode none
attr source completed
attr title "Time in System, mean"

