version 2
run General-0-20180316-17:48:04-30077
attr configname General
attr datetime 20180316-17:48:04
attr experiment General
attr inifile omnetpp.ini
attr iterationvars ""
attr iterationvarsf ""
attr measurement ""
attr network FatTree
attr processid 30077
attr repetition 0
attr replication #0
attr resultdir results
attr runnumber 0
attr seedset 0
param FatTree.vms[*].production_rate exponential(4s)
param FatTree.vms[*].service_rate exponential(.1s)
param FatTree.servers[*].service_rate exponential(.1s)
param FatTree.edge[*].service_rate exponential(.1s)
param FatTree.aggregate[*].service_rate exponential(.1s)
param FatTree.core[*].service_rate exponential(.1s)
param FatTree.sdn.service_rate exponential(.1s)
param FatTree.vnf_lengths "\"4\""
param FatTree.k 4
param FatTree.vm_k 2
param FatTree.p_sdn 20

statistic FatTree Hop_Count:stats
field count 4310242
field mean 23.071588091806
field stddev 2.923264439419
field min 6
field max 30
field sum 99444128
field sqrsum 2331167016
attr interpolationmode none
attr source msg_hop_count
attr title "Hop Count, stats"
statistic FatTree Proc_SDN:stats
field count 2586054
field mean 0.19220865420048
field stddev 0.19194736280953
field min 2.31597e-07
field max 2.767328305785
field sum 497061.95902976
field sqrsum 190819.60409177
attr interpolationmode none
attr source sdn_msg_processed
attr title "Queueing Time - SDN, stats"
statistic FatTree Proc_Core:stats
field count 10011431
field mean 0.18666280109677
field stddev 0.186548767832
field min 1.9814e-08
field max 2.651794412277
field sum 1868761.7534471
field sqrsum 697230.50033828
attr interpolationmode none
attr source core_msg_processed
attr title "Queueing Time - Core, stats"
statistic FatTree Proc_Agg:stats
field count 21691279
field mean 0.20141982799109
field stddev 0.20149468081417
field min 4.587e-09
field max 2.971106085613
field sum 4369053.6850867
field sqrsum 1760682.236408
attr interpolationmode none
attr source agg_msg_processed
attr title "Queueing Time - Aggregate, stats"
statistic FatTree Proc_Edge:stats
field count 24194026
field mean 0.22813734548776
field stddev 0.22844362073625
field min 2.538e-09
field max 3.39029471314
field sum 5519560.8683019
field sqrsum 2521819.1565807
attr interpolationmode none
attr source edge_msg_processed
attr title "Queueing Time - Edge, stats"
statistic FatTree Proc_Server:stats
field count 28031021
field mean 0.14812342194526
field stddev 0.14805551728571
field min 5.728e-09
field max 2.72178501648
field sum 4152050.7511393
field sqrsum 1229468.1508447
attr interpolationmode none
attr source server_msg_processed
attr title "Queueing Time - Server, stats"
statistic FatTree Proc_VNF:stats
field count 12930770
field mean 0.10812303627049
field stddev 0.10810280213567
field min 4.587e-09
field max 1.947265957682
field sum 1398114.1137153
field sqrsum 302280.10040402
attr interpolationmode none
attr source vnf_msg_processed
attr title "Queueing Time - VNF, stats"
statistic FatTree Rec_SDN:stats
field count 1
field mean 4.7995297106306
field stddev -nan
field min 4.7995297106306
field max 4.7995297106306
field sum 4.7995297106306
field sqrsum 23.035485443226
attr interpolationmode none
attr source sdn_received_count
attr title "Arrival Rate - SDN, stats"
statistic FatTree Rec_Core:stats
field count 4
field mean 4.6451239946634
field stddev 0.0019084280406878
field min 4.6422770024006
field max 4.6463154998998
field sum 18.580495978654
field sqrsum 86.308718629483
attr interpolationmode none
attr source core_received_count
attr title "Arrival Rate - Core, stats"
statistic FatTree Rec_Agg:stats
field count 8
field mean 5.0321822436087
field stddev 0.0034755976910699
field min 5.0283209871532
field max 5.0369900229156
field sum 40.25745794887
field sqrsum 202.58294962158
attr interpolationmode none
attr source agg_received_count
attr title "Arrival Rate - Aggregate, stats"
statistic FatTree Rec_Edge:stats
field count 8
field mean 5.6127962959796
field stddev 0.0039388972271508
field min 5.6076356585216
field max 5.6186914166111
field sum 44.902370367837
field sqrsum 252.02796668568
attr interpolationmode none
attr source edge_received_count
attr title "Arrival Rate - Edge, stats"
statistic FatTree Rec_Server:stats
field count 16
field mean 3.2514719839705
field stddev 0.0038812585395297
field min 3.2424754930599
field max 3.2584197632878
field sum 52.023551743528
field sqrsum 169.15334696324
attr interpolationmode none
attr source server_received_count
attr title "Arrival Rate - Server, stats"
statistic FatTree Rec_VNF:stats
field count 32
field mean 0.74995534215473
field stddev 0.0010132836783071
field min 0.74726679967321
field max 0.75175814339936
field sum 23.998570948951
field sqrsum 17.997888316304
attr interpolationmode none
attr source vnf_received_count
attr title "Arrival Rate - VNF, stats"
statistic FatTree Time_In_System:stats
field count 4310242
field mean 4.1307485295639
field stddev 1.151033570539
field min 0.104813604302
field max 13.396785165542
field sum 17804525.803565
field sqrsum 79256563.467311
attr interpolationmode none
attr source completed
attr title "Time in System, stats"

