version 2
run IncreasingSDN-19-20191029-13:44:18-14262
attr configname IncreasingSDN
attr datetime 20191029-13:44:18
attr experiment IncreasingSDN
attr inifile omnetpp.ini
attr iterationvars "$0=19, $1=10"
attr iterationvarsf 19,10-
attr measurement "$0=19, $1=10"
attr network FatTree
attr processid 14262
attr repetition 0
attr replication #0
attr resultdir results
attr runnumber 19
attr seedset 19
param FatTree.vms[*].service_rate 20
param FatTree.servers[*].service_rate 40
param FatTree.edge[*].service_rate 40
param FatTree.aggregate[*].service_rate 40
param FatTree.core[*].service_rate 40
param FatTree.sdn.service_rate 40
param FatTree.k 4
param FatTree.vm_k 2
param FatTree.vnf_chains "\"100\""
param FatTree.vms[*].production_rate 19
param FatTree.p_sdn 10
param FatTree.prob_service "\"EQUAL\""

scalar FatTree Time_In_System:mean 3376.5063710896
attr interpolationmode none
attr source completed
attr title "Time in System, mean"

