version 2
run IncreasingSDN-495-20180331-08:01:44-19751
attr configname IncreasingSDN
attr datetime 20180331-08:01:44
attr experiment IncreasingSDN
attr inifile omnetpp.ini
attr iterationvars "$0=4.9, $1=60"
attr iterationvarsf 4.9,60-
attr measurement "$0=4.9, $1=60"
attr network FatTree
attr processid 19751
attr repetition 0
attr replication #0
attr resultdir results
attr runnumber 495
attr seedset 495
param FatTree.vms[*].service_rate 20
param FatTree.servers[*].service_rate 40
param FatTree.edge[*].service_rate 40
param FatTree.aggregate[*].service_rate 40
param FatTree.core[*].service_rate 40
param FatTree.sdn.service_rate 40
param FatTree.vms[*].production_rate 4.9
param FatTree.p_sdn 60
param FatTree.k 4
param FatTree.vm_k 2
param FatTree.p_sdn 0
param FatTree.vnf_chains "\"100\""
param FatTree.prob_service "\"EQUAL\""

statistic FatTree Proc_SDN:stats
field count 5484937
field mean 38495.904388611
field stddev 22243.223196543
field min 0.053447277927
field max 77030.184468395
field sum 211147610329.55
field sqrsum 1.0842050519697e+16
attr interpolationmode none
attr source sdn_msg_processed
attr title "Queueing Time - SDN, stats"
statistic FatTree Proc_Core:stats
field count 11050685
field mean 0.050306968274078
field stddev 0.050313635022757
field min 6.665e-09
field max 0.757778757327
field sum 555926.45970183
field sqrsum 55941.359945555
attr interpolationmode none
attr source core_msg_processed
attr title "Queueing Time - Core, stats"
statistic FatTree Proc_Agg:stats
field count 23944124
field mean 0.054960368626781
field stddev 0.054967698102243
field min 1.57e-10
field max 0.830019559813
field sum 1315977.8814854
field sqrsum 144672.54806229
attr interpolationmode none
attr source agg_msg_processed
attr title "Queueing Time - Aggregate, stats"
statistic FatTree Proc_Edge:stats
field count 26708345
field mean 0.063762760316343
field stddev 0.063733880810089
field min 2.62e-10
field max 0.929278309228
field sum 1702997.8006812
field sqrsum 217077.33591036
attr interpolationmode none
attr source edge_msg_processed
attr title "Queueing Time - Edge, stats"
statistic FatTree Proc_Server:stats
field count 40821276
field mean 0.046690108047843
field stddev 0.046693869432386
field min 1.112e-09
field max 0.858663445441
field sum 1905949.7870908
field sqrsum 177992.33940343
attr interpolationmode none
attr source server_msg_processed
attr title "Queueing Time - Server, stats"
statistic FatTree Proc_VNF:stats
field count 14508150
field mean 0.059878254579781
field stddev 0.05988374749869
field min 5.297e-09
field max 1.009288096118
field sum 868722.69918165
field sqrsum 104044.73838003
attr interpolationmode none
attr source vnf_msg_processed
attr title "Queueing Time - VNF, stats"
statistic FatTree Rec_SDN:stats
field count 1
field mean 91.070176416744
field stddev -nan
field min 91.070176416744
field max 91.070176416744
field sum 91.070176416744
field sqrsum 8293.7770325768
attr interpolationmode none
attr source sdn_received_count
attr title "Arrival Rate - SDN, stats"
statistic FatTree Rec_Core:stats
field count 4
field mean 20.130662539587
field stddev 0.011721791308115
field min 20.118938297249
field max 20.145753220681
field sum 80.522650158346
field sqrsum 1620.974709332
attr interpolationmode none
attr source core_received_count
attr title "Arrival Rate - Core, stats"
statistic FatTree Rec_Agg:stats
field count 8
field mean 21.809104598947
field stddev 0.012087203485892
field min 21.791992779432
field max 21.826509706686
field sum 174.47283679157
field sqrsum 3805.0973699658
attr interpolationmode none
attr source agg_received_count
attr title "Arrival Rate - Aggregate, stats"
statistic FatTree Rec_Edge:stats
field count 8
field mean 24.326851029206
field stddev 0.0084281267881292
field min 24.318891259646
field max 24.345210689927
field sum 194.61480823365
field sqrsum 4734.3659452109
attr interpolationmode none
attr source edge_received_count
attr title "Arrival Rate - Edge, stats"
statistic FatTree Rec_Server:stats
field count 16
field mean 18.59068895576
field stddev 0.01142232148211
field min 18.567607536783
field max 18.608769901583
field sum 297.45102329216
field sqrsum 5529.8214106385
attr interpolationmode none
attr source server_received_count
attr title "Arrival Rate - Server, stats"
statistic FatTree Rec_VNF:stats
field count 32
field mean 3.3036272579703
field stddev 0.0049848743030787
field min 3.2944756634331
field max 3.3146888693022
field sum 105.71607225505
field sqrsum 349.24726822547
attr interpolationmode none
attr source vnf_received_count
attr title "Arrival Rate - VNF, stats"
scalar FatTree Time_In_System:mean 14554.059398952
attr interpolationmode none
attr source completed
attr title "Time in System, mean"

