version 2
run IncreasingLength_Small-1-20180326-12:12:08-22946
attr configname IncreasingLength_Small
attr datetime 20180326-12:12:08
attr experiment IncreasingLength_Small
attr inifile omnetpp.ini
attr iterationvars "$0=\"100.100\""
attr iterationvarsf 100.100-
attr measurement "$0=\"100.100\""
attr network FatTree
attr processid 22946
attr repetition 0
attr replication #0
attr resultdir results
attr runnumber 1
attr seedset 1
param FatTree.vms[*].service_rate exponential(1s)
param FatTree.servers[*].service_rate exponential(0.2s)
param FatTree.edge[*].service_rate exponential(0.2s)
param FatTree.aggregate[*].service_rate exponential(0.2s)
param FatTree.core[*].service_rate exponential(0.2s)
param FatTree.sdn.service_rate exponential(0.2s)
param FatTree.vnf_chains "\"100.100\""
param FatTree.vms[*].production_rate exponential(5s)
param FatTree.vnf_chains "\"100\""
param FatTree.k 4
param FatTree.vm_k 2
param FatTree.p_sdn 0

scalar FatTree Time_In_System:mean 8.4111465131618
attr interpolationmode none
attr source completed
attr title "Time in System, mean"

