version 2
run IncreasingArrival_Large-0-20180326-11:04:28-13734
attr configname IncreasingArrival_Large
attr datetime 20180326-11:04:28
attr experiment IncreasingArrival_Large
attr inifile omnetpp.ini
attr iterationvars $0=0.8
attr iterationvarsf 0.8-
attr measurement $0=0.8
attr network FatTree
attr processid 13734
attr repetition 0
attr replication #0
attr resultdir results
attr runnumber 0
attr seedset 0
param FatTree.vms[*].service_rate exponential(0.5s)
param FatTree.servers[*].service_rate exponential(0.1s)
param FatTree.edge[*].service_rate exponential(0.1s)
param FatTree.aggregate[*].service_rate exponential(0.1s)
param FatTree.core[*].service_rate exponential(0.1s)
param FatTree.sdn.service_rate exponential(0.1s)
param FatTree.vms[*].production_rate exponential(0.8s)
param FatTree.vms[*].production_rate exponential(5s)
param FatTree.vnf_chains "\"100\""
param FatTree.k 4
param FatTree.vm_k 2
param FatTree.p_sdn 0

scalar FatTree Time_In_System:mean 5.6958773019402
attr interpolationmode none
attr source completed
attr title "Time in System, mean"

