version 2
run IncreasingSDN-16-20191029-13:43:11-14262
attr configname IncreasingSDN
attr datetime 20191029-13:43:11
attr experiment IncreasingSDN
attr inifile omnetpp.ini
attr iterationvars "$0=16, $1=10"
attr iterationvarsf 16,10-
attr measurement "$0=16, $1=10"
attr network FatTree
attr processid 14262
attr repetition 0
attr replication #0
attr resultdir results
attr runnumber 16
attr seedset 16
param FatTree.vms[*].service_rate 20
param FatTree.servers[*].service_rate 40
param FatTree.edge[*].service_rate 40
param FatTree.aggregate[*].service_rate 40
param FatTree.core[*].service_rate 40
param FatTree.sdn.service_rate 40
param FatTree.k 4
param FatTree.vm_k 2
param FatTree.vnf_chains "\"100\""
param FatTree.vms[*].production_rate 16
param FatTree.p_sdn 10
param FatTree.prob_service "\"EQUAL\""

scalar FatTree Time_In_System:mean 2756.9873030242
attr interpolationmode none
attr source completed
attr title "Time in System, mean"

