version 2
run IncreasingNumPorts-75-20191029-18:04:19-30418
attr configname IncreasingNumPorts
attr datetime 20191029-18:04:19
attr experiment IncreasingNumPorts
attr inifile omnetpp.ini
attr iterationvars "$0=5, $1=4"
attr iterationvarsf 5,4-
attr measurement "$0=5, $1=4"
attr network FatTree
attr processid 30418
attr repetition 0
attr replication #0
attr resultdir results
attr runnumber 75
attr seedset 75
param FatTree.vms[*].service_rate 20
param FatTree.servers[*].service_rate 40
param FatTree.edge[*].service_rate 40
param FatTree.aggregate[*].service_rate 40
param FatTree.core[*].service_rate 40
param FatTree.sdn.service_rate 40
param FatTree.vm_k 2
param FatTree.p_sdn 0
param FatTree.vnf_chains "\"100\""
param FatTree.vms[*].production_rate 5
param FatTree.k 4
param FatTree.prob_service "\"EQUAL\""

scalar FatTree Time_In_System:mean 0.31422405675645
attr interpolationmode none
attr source completed
attr title "Time in System, mean"

