version 2
run IncreasingArrival_Small-0-20180326-11:04:29-13735
attr configname IncreasingArrival_Small
attr datetime 20180326-11:04:29
attr experiment IncreasingArrival_Small
attr inifile omnetpp.ini
attr iterationvars $0=1.5
attr iterationvarsf 1.5-
attr measurement $0=1.5
attr network FatTree
attr processid 13735
attr repetition 0
attr replication #0
attr resultdir results
attr runnumber 0
attr seedset 0
param FatTree.vms[*].service_rate exponential(1s)
param FatTree.servers[*].service_rate exponential(0.2s)
param FatTree.edge[*].service_rate exponential(0.2s)
param FatTree.aggregate[*].service_rate exponential(0.2s)
param FatTree.core[*].service_rate exponential(0.2s)
param FatTree.sdn.service_rate exponential(0.2s)
param FatTree.vms[*].production_rate exponential(1.5s)
param FatTree.vms[*].production_rate exponential(5s)
param FatTree.vnf_chains "\"100\""
param FatTree.k 4
param FatTree.vm_k 2
param FatTree.p_sdn 0

scalar FatTree Time_In_System:mean 33.502573472707
attr interpolationmode none
attr source completed
attr title "Time in System, mean"

