version 2
run IncreasingSDN-207-20180330-22:19:51-19751
attr configname IncreasingSDN
attr datetime 20180330-22:19:51
attr experiment IncreasingSDN
attr inifile omnetpp.ini
attr iterationvars "$0=2, $1=80"
attr iterationvarsf 2,80-
attr measurement "$0=2, $1=80"
attr network FatTree
attr processid 19751
attr repetition 0
attr replication #0
attr resultdir results
attr runnumber 207
attr seedset 207
param FatTree.vms[*].service_rate 20
param FatTree.servers[*].service_rate 40
param FatTree.edge[*].service_rate 40
param FatTree.aggregate[*].service_rate 40
param FatTree.core[*].service_rate 40
param FatTree.sdn.service_rate 40
param FatTree.vms[*].production_rate 2
param FatTree.p_sdn 80
param FatTree.k 4
param FatTree.vm_k 2
param FatTree.p_sdn 0
param FatTree.vnf_chains "\"100\""
param FatTree.prob_service "\"EQUAL\""

statistic FatTree Proc_SDN:stats
field count 10657670
field mean 25577.056089338
field stddev 14785.591446816
field min 0.023461355285
field max 51235.156794008
field sum 272591823371.65
field sqrsum 9.30200896315e+15
attr interpolationmode none
attr source sdn_msg_processed
attr title "Queueing Time - SDN, stats"
statistic FatTree Proc_Core:stats
field count 11163313
field mean 0.033865256491702
field stddev 0.033882618527519
field min 1.665e-09
field max 0.519515474219
field sum 378048.45804215
field sqrsum 25618.545594558
attr interpolationmode none
attr source core_msg_processed
attr title "Queueing Time - Core, stats"
statistic FatTree Proc_Agg:stats
field count 24188647
field mean 0.034892415273637
field stddev 0.034889262570309
field min 5.53e-10
field max 0.535067710193
field sum 844000.31603142
field sqrsum 58893.096294052
attr interpolationmode none
attr source agg_msg_processed
attr title "Queueing Time - Aggregate, stats"
statistic FatTree Proc_Edge:stats
field count 26982635
field mean 0.036593853609998
field stddev 0.036588548799642
field min 3.044e-09
field max 0.5647106379
field sum 987398.59520201
field sqrsum 72254.962791091
attr interpolationmode none
attr source edge_msg_processed
attr title "Queueing Time - Edge, stats"
statistic FatTree Proc_Server:stats
field count 41661956
field mean 0.03309684241237
field stddev 0.03309389865753
field min 7.6e-11
field max 0.587640995267
field sum 1378879.1923231
field sqrsum 91264.975769259
attr interpolationmode none
attr source server_msg_processed
attr title "Queueing Time - Server, stats"
statistic FatTree Proc_VNF:stats
field count 14508103
field mean 0.054653557881992
field stddev 0.054661127319249
field min 1.56e-09
field max 0.943888198324
field sum 792919.4470684
field sqrsum 86683.739543652
attr interpolationmode none
attr source vnf_msg_processed
attr title "Queueing Time - VNF, stats"
statistic FatTree Rec_SDN:stats
field count 1
field mean 49.530137156217
field stddev -nan
field min 49.530137156217
field max 49.530137156217
field sum 49.530137156217
field sqrsum 2453.2344867136
attr interpolationmode none
attr source sdn_received_count
attr title "Arrival Rate - SDN, stats"
statistic FatTree Rec_Core:stats
field count 4
field mean 10.47471955044
field stddev 0.0099298226436357
field min 10.461566232468
field max 10.485628415808
field sum 41.898878201759
field sqrsum 438.8792944456
attr interpolationmode none
attr source core_received_count
attr title "Arrival Rate - Core, stats"
statistic FatTree Rec_Agg:stats
field count 8
field mean 11.348302352408
field stddev 0.0092418585899812
field min 11.330649807752
field max 11.36117886707
field sum 90.786418819267
field sqrsum 1030.2723281371
attr interpolationmode none
attr source agg_received_count
attr title "Arrival Rate - Aggregate, stats"
statistic FatTree Rec_Edge:stats
field count 8
field mean 12.659125070555
field stddev 0.0088008359798193
field min 12.647978342003
field max 12.676428092388
field sum 101.27300056444
field sqrsum 1282.0281225987
attr interpolationmode none
attr source edge_received_count
attr title "Arrival Rate - Edge, stats"
statistic FatTree Rec_Server:stats
field count 16
field mean 9.7730240975404
field stddev 0.0080987863877971
field min 9.7621677778849
field max 9.7888047011675
field sum 156.36838556065
field sqrsum 1528.1929840328
attr interpolationmode none
attr source server_received_count
attr title "Arrival Rate - Server, stats"
statistic FatTree Rec_VNF:stats
field count 32
field mean 1.7016487009804
field stddev 0.0022650517983866
field min 1.6975943535136
field max 1.706515864947
field sum 54.452758431374
field sqrsum 92.659624693799
attr interpolationmode none
attr source vnf_received_count
attr title "Arrival Rate - VNF, stats"
scalar FatTree Time_In_System:mean 18789.200723994
attr interpolationmode none
attr source completed
attr title "Time in System, mean"

