version 2
run IncreasingNumPorts-78-20180405-20:22:53-16191
attr configname IncreasingNumPorts
attr datetime 20180405-20:22:53
attr experiment IncreasingNumPorts
attr inifile omnetpp.ini
attr iterationvars "$0=1.5, $1=10"
attr iterationvarsf 1.5,10-
attr measurement "$0=1.5, $1=10"
attr network FatTree
attr processid 16191
attr repetition 0
attr replication #0
attr resultdir results
attr runnumber 78
attr seedset 78
param FatTree.vms[*].service_rate 20
param FatTree.servers[*].service_rate 40
param FatTree.edge[*].service_rate 40
param FatTree.aggregate[*].service_rate 40
param FatTree.core[*].service_rate 40
param FatTree.sdn.service_rate 40
param FatTree.vm_k 2
param FatTree.p_sdn 0
param FatTree.vnf_chains "\"100\""
param FatTree.vms[*].production_rate 1.5
param FatTree.k 10
param FatTree.prob_service "\"EQUAL\""

scalar FatTree Time_In_System:mean 0.53493015304523
attr interpolationmode none
attr source completed
attr title "Time in System, mean"

