version 2
run IncreasingSDN-327-20180331-02:21:21-19751
attr configname IncreasingSDN
attr datetime 20180331-02:21:21
attr experiment IncreasingSDN
attr inifile omnetpp.ini
attr iterationvars "$0=3.2, $1=80"
attr iterationvarsf 3.2,80-
attr measurement "$0=3.2, $1=80"
attr network FatTree
attr processid 19751
attr repetition 0
attr replication #0
attr resultdir results
attr runnumber 327
attr seedset 327
param FatTree.vms[*].service_rate 20
param FatTree.servers[*].service_rate 40
param FatTree.edge[*].service_rate 40
param FatTree.aggregate[*].service_rate 40
param FatTree.core[*].service_rate 40
param FatTree.sdn.service_rate 40
param FatTree.vms[*].production_rate 3.2
param FatTree.p_sdn 80
param FatTree.k 4
param FatTree.vm_k 2
param FatTree.p_sdn 0
param FatTree.vnf_chains "\"100\""
param FatTree.prob_service "\"EQUAL\""

statistic FatTree Proc_SDN:stats
field count 8628146
field mean 53475.327027397
field stddev 30859.166586655
field min 0.060133306394
field max 106883.79580096
field sum 461392928990.13
field sqrsum 3.2889618113044e+16
attr interpolationmode none
attr source sdn_msg_processed
attr title "Queueing Time - SDN, stats"
statistic FatTree Proc_Core:stats
field count 10322119
field mean 0.035670374107104
field stddev 0.035675037139249
field min 2.439e-09
field max 0.616285980943
field sum 368193.84630805
field sqrsum 26270.6572347
attr interpolationmode none
attr source core_msg_processed
attr title "Queueing Time - Core, stats"
statistic FatTree Proc_Agg:stats
field count 22362712
field mean 0.036989890764624
field stddev 0.036975197911987
field min 1.461e-09
field max 0.620205732323
field sum 827194.27408074
field sqrsum 61171.347452091
attr interpolationmode none
attr source agg_msg_processed
attr title "Queueing Time - Aggregate, stats"
statistic FatTree Proc_Edge:stats
field count 24940869
field mean 0.039151882941072
field stddev 0.039134399092263
field min 2.253e-09
field max 0.687196719185
field sum 976481.98353662
field sqrsum 76428.077392801
attr interpolationmode none
attr source edge_msg_processed
attr title "Queueing Time - Edge, stats"
statistic FatTree Proc_Server:stats
field count 43615053
field mean 0.03653959455118
field stddev 0.036546046230806
field min 1.75e-10
field max 0.644736070083
field sum 1593676.3529482
field sqrsum 116485.1398234
attr interpolationmode none
attr source server_msg_processed
attr title "Queueing Time - Server, stats"
statistic FatTree Proc_VNF:stats
field count 13613393
field mean 0.055500555075501
field stddev 0.055524679595136
field min 5.518e-09
field max 0.843133075593
field sum 755550.86796094
field sqrsum 83903.444562618
attr interpolationmode none
attr source vnf_msg_processed
attr title "Queueing Time - VNF, stats"
statistic FatTree Rec_SDN:stats
field count 1
field mean 79.284303662731
field stddev -nan
field min 79.284303662731
field max 79.284303662731
field sum 79.284303662731
field sqrsum 6286.0008072841
attr interpolationmode none
attr source sdn_received_count
attr title "Arrival Rate - SDN, stats"
statistic FatTree Rec_Core:stats
field count 4
field mean 11.963687142315
field stddev 0.0031397581932361
field min 11.959788152229
field max 11.967275511312
field sum 47.854748569261
field sqrsum 572.51926973105
attr interpolationmode none
attr source core_received_count
attr title "Arrival Rate - Core, stats"
statistic FatTree Rec_Agg:stats
field count 8
field mean 12.959574283375
field stddev 0.0075431759946263
field min 12.950140906351
field max 12.972718886992
field sum 103.676594267
field sqrsum 1343.6049231471
attr interpolationmode none
attr source agg_received_count
attr title "Arrival Rate - Aggregate, stats"
statistic FatTree Rec_Edge:stats
field count 8
field mean 14.453658243875
field stddev 0.0077698270630849
field min 14.442582515795
field max 14.465999636989
field sum 115.629265951
field sqrsum 1671.2663156374
attr interpolationmode none
attr source edge_received_count
attr title "Arrival Rate - Edge, stats"
statistic FatTree Rec_Server:stats
field count 16
field mean 12.637833712866
field stddev 0.0095291387932685
field min 12.612977940826
field max 12.654652164231
field sum 202.20533940586
field sqrsum 2555.4388173322
attr interpolationmode none
attr source server_received_count
attr title "Arrival Rate - Server, stats"
statistic FatTree Rec_VNF:stats
field count 32
field mean 1.9722983108698
field stddev 0.0028526474371513
field min 1.9656890648556
field max 1.978577521977
field sum 63.113545947832
field sqrsum 124.47899233143
attr interpolationmode none
attr source vnf_received_count
attr title "Arrival Rate - VNF, stats"
scalar FatTree Time_In_System:mean 33892.757694166
attr interpolationmode none
attr source completed
attr title "Time in System, mean"

