version 2
run LowNumPorts-17-20191029-17:32:55-28800
attr configname LowNumPorts
attr datetime 20191029-17:32:55
attr experiment LowNumPorts
attr inifile omnetpp.ini
attr iterationvars $0=3.4
attr iterationvarsf 3.4-
attr measurement $0=3.4
attr network FatTree
attr processid 28800
attr repetition 0
attr replication #0
attr resultdir results
attr runnumber 17
attr seedset 17
param FatTree.vms[*].service_rate 20
param FatTree.servers[*].service_rate 40
param FatTree.edge[*].service_rate 40
param FatTree.aggregate[*].service_rate 40
param FatTree.core[*].service_rate 40
param FatTree.sdn.service_rate 40
param FatTree.vm_k 2
param FatTree.p_sdn 0
param FatTree.vnf_chains "\"100\""
param FatTree.vms[*].production_rate 3.4
param FatTree.k 2
param FatTree.prob_service "\"EQUAL\""

scalar FatTree Time_In_System:mean 0.19700970026728
attr interpolationmode none
attr source completed
attr title "Time in System, mean"

