version 2
run LowNumPorts-9-20180406-10:11:44-13368
attr configname LowNumPorts
attr datetime 20180406-10:11:44
attr experiment LowNumPorts
attr inifile omnetpp.ini
attr iterationvars $0=0.9
attr iterationvarsf 0.9-
attr measurement $0=0.9
attr network FatTree
attr processid 13368
attr repetition 0
attr replication #0
attr resultdir results
attr runnumber 9
attr seedset 9
param FatTree.vms[*].service_rate 20
param FatTree.servers[*].service_rate 40
param FatTree.edge[*].service_rate 40
param FatTree.aggregate[*].service_rate 40
param FatTree.core[*].service_rate 40
param FatTree.sdn.service_rate 40
param FatTree.vm_k 2
param FatTree.p_sdn 0
param FatTree.vnf_chains "\"100\""
param FatTree.vms[*].production_rate 0.9
param FatTree.k 2
param FatTree.prob_service "\"EQUAL\""

scalar FatTree Time_In_System:mean 0.18632988264347
attr interpolationmode none
attr source completed
attr title "Time in System, mean"

