version 2
run MultipleServices-247-20180401-16:54:22-22821
attr configname MultipleServices
attr datetime 20180401-16:54:22
attr experiment MultipleServices
attr inifile omnetpp.ini
attr iterationvars "$0=4.9, $1=\"100 100.100 100.100.100\""
attr iterationvarsf 4.9,100_100.100_100.100.100-
attr measurement "$0=4.9, $1=\"100 100.100 100.100.100\""
attr network FatTree
attr processid 22821
attr repetition 0
attr replication #0
attr resultdir results
attr runnumber 247
attr seedset 247
param FatTree.vms[*].service_rate 20
param FatTree.servers[*].service_rate 40
param FatTree.edge[*].service_rate 40
param FatTree.aggregate[*].service_rate 40
param FatTree.core[*].service_rate 40
param FatTree.sdn.service_rate 40
param FatTree.vms[*].production_rate 4.9
param FatTree.vnf_chains "\"100 100.100 100.100.100\""
param FatTree.k 4
param FatTree.vm_k 2
param FatTree.p_sdn 0
param FatTree.vnf_chains "\"100\""
param FatTree.prob_service "\"EQUAL\""

statistic FatTree Proc_SDN:stats
field count 0
field mean -nan
field stddev nan
field min nan
field max nan
field sum 0
field sqrsum 0
attr interpolationmode none
attr source sdn_msg_processed
attr title "Queueing Time - SDN, stats"
statistic FatTree Proc_Core:stats
field count 12600996
field mean 0.32545686879056
field stddev 0.32606130056853
field min 3.4453e-08
field max 3.470579044995
field sum 4101080.7018024
field sqrsum 2674411.9120362
attr interpolationmode none
attr source core_msg_processed
attr title "Queueing Time - Core, stats"
statistic FatTree Proc_Agg:stats
field count 27283779
field mean 69.132814128501
field stddev 45.551808830215
field min 2.705679e-06
field max 214.24918369639
field sum 1886204422.3301
field sqrsum 187011566572.29
attr interpolationmode none
attr source agg_msg_processed
attr title "Queueing Time - Aggregate, stats"
statistic FatTree Proc_Edge:stats
field count 27293892
field mean 9188.4050553871
field stddev 5314.5579623403
field min 0.000163984835
field max 18458.420242785
field sum 250787335233.99
field sqrsum 3.0752386420272e+15
attr interpolationmode none
attr source edge_msg_processed
attr title "Queueing Time - Edge, stats"
statistic FatTree Proc_Server:stats
field count 33350640
field mean 0.064171784050723
field stddev 0.064112888140705
field min 6.217e-09
field max 0.954866803605
field sum 2140170.0680334
field sqrsum 274425.07992167
attr interpolationmode none
attr source server_msg_processed
attr title "Queueing Time - Server, stats"
statistic FatTree Proc_VNF:stats
field count 13239625
field mean 0.065977437138117
field stddev 0.065969829420532
field min 2.305e-09
field max 0.99926378587
field sum 873516.52616974
field sqrsum 115251.46886912
attr interpolationmode none
attr source vnf_msg_processed
attr title "Queueing Time - VNF, stats"
statistic FatTree Rec_SDN:stats
field count 1
field mean 0
field stddev -nan
field min 0
field max 0
field sum 0
field sqrsum 0
attr interpolationmode none
attr source sdn_received_count
attr title "Arrival Rate - SDN, stats"
statistic FatTree Rec_Core:stats
field count 4
field mean 36.935397146306
field stddev 0.029243025136505
field min 36.896961382612
field max 36.965725434794
field sum 147.74158858522
field sqrsum 5456.8968148849
attr interpolationmode none
attr source core_received_count
attr title "Arrival Rate - Core, stats"
statistic FatTree Rec_Agg:stats
field count 8
field mean 40.047543541311
field stddev 0.022283583003031
field min 40.017606557212
field max 40.076627569776
field sum 320.38034833049
field sqrsum 12830.449425452
attr interpolationmode none
attr source agg_received_count
attr title "Arrival Rate - Aggregate, stats"
statistic FatTree Rec_Edge:stats
field count 8
field mean 50.992176349443
field stddev 0.01422965687575
field min 50.971761105477
field max 51.013429893448
field sum 407.93741079554
field sqrsum 20801.617808203
attr interpolationmode none
attr source edge_received_count
attr title "Arrival Rate - Edge, stats"
statistic FatTree Rec_Server:stats
field count 16
field mean 24.438695782031
field stddev 0.011672471244448
field min 24.412915124701
field max 24.451230712515
field sum 391.0191325125
field sqrsum 9555.9996681255
attr interpolationmode none
attr source server_received_count
attr title "Arrival Rate - Server, stats"
statistic FatTree Rec_VNF:stats
field count 32
field mean 4.8508686102682
field stddev 0.0074253113304293
field min 4.8351622090058
field max 4.8644851236703
field sum 155.22779552858
field sqrsum 752.99134996344
attr interpolationmode none
attr source vnf_received_count
attr title "Arrival Rate - VNF, stats"
scalar FatTree Time_In_System:mean 21187.670577143
attr interpolationmode none
attr source completed
attr title "Time in System, mean"

