version 2
run MultipleServices-174-20180401-14:20:59-22821
attr configname MultipleServices
attr datetime 20180401-14:20:59
attr experiment MultipleServices
attr inifile omnetpp.ini
attr iterationvars "$0=3.4, $1=\"100 100.100 100.100.100 100.100.100.100 100.100.100.100.100\""
attr iterationvarsf 3.4,100_100.100_100.100.100_100.100.100.100_100.100.100.100.100-
attr measurement "$0=3.4, $1=\"100 100.100 100.100.100 100.100.100.100 100.100.100.100.100\""
attr network FatTree
attr processid 22821
attr repetition 0
attr replication #0
attr resultdir results
attr runnumber 174
attr seedset 174
param FatTree.vms[*].service_rate 20
param FatTree.servers[*].service_rate 40
param FatTree.edge[*].service_rate 40
param FatTree.aggregate[*].service_rate 40
param FatTree.core[*].service_rate 40
param FatTree.sdn.service_rate 40
param FatTree.vms[*].production_rate 3.4
param FatTree.vnf_chains "\"100 100.100 100.100.100 100.100.100.100 100.100.100.100.100\""
param FatTree.k 4
param FatTree.vm_k 2
param FatTree.p_sdn 0
param FatTree.vnf_chains "\"100\""
param FatTree.prob_service "\"EQUAL\""

statistic FatTree Proc_SDN:stats
field count 0
field mean -nan
field stddev nan
field min nan
field max nan
field sum 0
field sqrsum 0
attr interpolationmode none
attr source sdn_msg_processed
attr title "Queueing Time - SDN, stats"
statistic FatTree Proc_Core:stats
field count 13054253
field mean 0.25320604113145
field stddev 0.25189521859221
field min 4.3929e-08
field max 3.017981349576
field sum 3305415.7220583
field sqrsum 1665259.1987858
attr interpolationmode none
attr source core_msg_processed
attr title "Queueing Time - Core, stats"
statistic FatTree Proc_Agg:stats
field count 28283851
field mean 1.0672055685972
field stddev 1.0451084414258
field min 4.8504e-08
field max 9.167722648444
field sum 30184683.288573
field sqrsum 63106344.045496
attr interpolationmode none
attr source agg_msg_processed
attr title "Queueing Time - Aggregate, stats"
statistic FatTree Proc_Edge:stats
field count 28964006
field mean 7681.5672755145
field stddev 4435.513690516
field min 0.000338680689
field max 15413.448243316
field sum 222488960657.4
field sqrsum 2.2788954308408e+15
attr interpolationmode none
attr source edge_msg_processed
attr title "Queueing Time - Edge, stats"
statistic FatTree Proc_Server:stats
field count 34044507
field mean 0.060640217363262
field stddev 0.060665037416447
field min 5.65e-10
field max 0.942375428925
field sum 2064466.3045051
field sqrsum 250481.86850795
attr interpolationmode none
attr source server_msg_processed
attr title "Queueing Time - Server, stats"
statistic FatTree Proc_VNF:stats
field count 14390200
field mean 0.066528279151978
field stddev 0.066601002023784
field min 6.228e-09
field max 1.166171526686
field sum 957355.2426528
field sqrsum 127521.70857535
attr interpolationmode none
attr source vnf_msg_processed
attr title "Queueing Time - VNF, stats"
statistic FatTree Rec_SDN:stats
field count 1
field mean 0
field stddev -nan
field min 0
field max 0
field sum 0
field sqrsum 0
attr interpolationmode none
attr source sdn_received_count
attr title "Arrival Rate - SDN, stats"
statistic FatTree Rec_Core:stats
field count 4
field mean 36.054312958225
field stddev 0.032414065645687
field min 36.019499514606
field max 36.097097175211
field sum 144.2172518329
field sqrsum 5199.6570835735
attr interpolationmode none
attr source core_received_count
attr title "Arrival Rate - Core, stats"
statistic FatTree Rec_Agg:stats
field count 8
field mean 39.058595762856
field stddev 0.01744028608913
field min 39.030054539027
field max 39.075912723705
field sum 312.46876610285
field sqrsum 12204.593352875
attr interpolationmode none
attr source agg_received_count
attr title "Arrival Rate - Aggregate, stats"
statistic FatTree Rec_Edge:stats
field count 8
field mean 48.172454257947
field stddev 0.018027024794454
field min 48.151138101037
field max 48.203580597462
field sum 385.37963406358
field sqrsum 18564.685068687
attr interpolationmode none
attr source edge_received_count
attr title "Arrival Rate - Edge, stats"
statistic FatTree Rec_Server:stats
field count 16
field mean 23.50670688665
field stddev 0.025047018221603
field min 23.470011224719
field max 23.552171504036
field sum 376.10731018641
field sqrsum 8841.0537087752
attr interpolationmode none
attr source server_received_count
attr title "Arrival Rate - Server, stats"
statistic FatTree Rec_VNF:stats
field count 32
field mean 4.9679947484965
field stddev 0.0075186957995534
field min 4.952021094958
field max 4.9820261129255
field sum 158.97583195189
field sqrsum 789.79285072923
attr interpolationmode none
attr source vnf_received_count
attr title "Arrival Rate - VNF, stats"
scalar FatTree Time_In_System:mean 22807.245474584
attr interpolationmode none
attr source completed
attr title "Time in System, mean"

