version 2
run MultipleServices-30-20180401-09:30:41-22821
attr configname MultipleServices
attr datetime 20180401-09:30:41
attr experiment MultipleServices
attr inifile omnetpp.ini
attr iterationvars "$0=0.6, $1=\"100\""
attr iterationvarsf 0.6,100-
attr measurement "$0=0.6, $1=\"100\""
attr network FatTree
attr processid 22821
attr repetition 0
attr replication #0
attr resultdir results
attr runnumber 30
attr seedset 30
param FatTree.vms[*].service_rate 20
param FatTree.servers[*].service_rate 40
param FatTree.edge[*].service_rate 40
param FatTree.aggregate[*].service_rate 40
param FatTree.core[*].service_rate 40
param FatTree.sdn.service_rate 40
param FatTree.vms[*].production_rate 0.6
param FatTree.vnf_chains "\"100\""
param FatTree.k 4
param FatTree.vm_k 2
param FatTree.p_sdn 0
param FatTree.vnf_chains "\"100\""
param FatTree.prob_service "\"EQUAL\""

statistic FatTree Proc_SDN:stats
field count 0
field mean -nan
field stddev nan
field min nan
field max nan
field sum 0
field sqrsum 0
attr interpolationmode none
attr source sdn_msg_processed
attr title "Queueing Time - SDN, stats"
statistic FatTree Proc_Core:stats
field count 14927822
field mean 0.027550693702698
field stddev 0.027542553865229
field min 5.24e-10
field max 0.501426443853
field sum 411271.85157039
field sqrsum 22654.95448074
attr interpolationmode none
attr source core_msg_processed
attr title "Queueing Time - Core, stats"
statistic FatTree Proc_Agg:stats
field count 32343431
field mean 0.027794056215105
field stddev 0.027789134201906
field min 6.81e-10
field max 0.473065330997
field sum 898955.13940336
field sqrsum 49962.37003207
attr interpolationmode none
attr source agg_msg_processed
attr title "Queueing Time - Aggregate, stats"
statistic FatTree Proc_Edge:stats
field count 36076611
field mean 0.028158800214216
field stddev 0.028152313967872
field min 3.73e-10
field max 0.701504245012
field sum 1015874.081555
field sqrsum 57198.412916759
attr interpolationmode none
attr source edge_msg_processed
attr title "Queueing Time - Edge, stats"
statistic FatTree Proc_Server:stats
field count 37943933
field mean 0.026559057240279
field stddev 0.026549358377425
field min 3.96e-10
field max 0.430331032728
field sum 1007755.0884683
field sqrsum 53510.504865278
attr interpolationmode none
attr source server_msg_processed
attr title "Queueing Time - Server, stats"
statistic FatTree Proc_VNF:stats
field count 19282925
field mean 0.051551225209057
field stddev 0.051561060094165
field min 4.959e-09
field max 0.861597494377
field sum 994058.40936435
field sqrsum 102509.40997129
attr interpolationmode none
attr source vnf_msg_processed
attr title "Queueing Time - VNF, stats"
statistic FatTree Rec_SDN:stats
field count 1
field mean 0
field stddev -nan
field min 0
field max 0
field sum 0
field sqrsum 0
attr interpolationmode none
attr source sdn_received_count
attr title "Arrival Rate - SDN, stats"
statistic FatTree Rec_Core:stats
field count 4
field mean 3.7160839232724
field stddev 0.0025990333059692
field min 3.7130404222147
field max 3.7190686752503
field sum 14.86433569309
field sqrsum 55.237139164136
attr interpolationmode none
attr source core_received_count
attr title "Arrival Rate - Core, stats"
statistic FatTree Rec_Agg:stats
field count 8
field mean 4.0257348888087
field stddev 0.0017024457888399
field min 4.0235223387187
field max 4.0290666586563
field sum 32.20587911047
field sqrsum 129.65235144803
attr interpolationmode none
attr source agg_received_count
attr title "Arrival Rate - Aggregate, stats"
statistic FatTree Rec_Edge:stats
field count 8
field mean 4.490397915229
field stddev 0.00212838357425
field min 4.487026688902
field max 4.4938774290548
field sum 35.923183321832
field sqrsum 161.30941920686
attr interpolationmode none
attr source edge_received_count
attr title "Arrival Rate - Edge, stats"
statistic FatTree Rec_Server:stats
field count 16
field mean 2.3614101762988
field stddev 0.0020891614494543
field min 2.3567034041535
field max 2.3648615602686
field sum 37.782562820781
field sqrsum 89.220193800574
attr interpolationmode none
attr source server_received_count
attr title "Arrival Rate - Server, stats"
statistic FatTree Rec_VNF:stats
field count 32
field mean 0.60002874778399
field stddev 0.00095427906764327
field min 0.59804970039248
field max 0.60231249379276
field sum 19.200919929088
field sqrsum 11.521132171456
attr interpolationmode none
attr source vnf_received_count
attr title "Arrival Rate - VNF, stats"
scalar FatTree Time_In_System:mean 0.22444278952685
attr interpolationmode none
attr source completed
attr title "Time in System, mean"

