version 2
run MultipleServices-135-20180401-13:01:14-22821
attr configname MultipleServices
attr datetime 20180401-13:01:14
attr experiment MultipleServices
attr inifile omnetpp.ini
attr iterationvars "$0=2.7, $1=\"100\""
attr iterationvarsf 2.7,100-
attr measurement "$0=2.7, $1=\"100\""
attr network FatTree
attr processid 22821
attr repetition 0
attr replication #0
attr resultdir results
attr runnumber 135
attr seedset 135
param FatTree.vms[*].service_rate 20
param FatTree.servers[*].service_rate 40
param FatTree.edge[*].service_rate 40
param FatTree.aggregate[*].service_rate 40
param FatTree.core[*].service_rate 40
param FatTree.sdn.service_rate 40
param FatTree.vms[*].production_rate 2.7
param FatTree.vnf_chains "\"100\""
param FatTree.k 4
param FatTree.vm_k 2
param FatTree.p_sdn 0
param FatTree.vnf_chains "\"100\""
param FatTree.prob_service "\"EQUAL\""

statistic FatTree Proc_SDN:stats
field count 0
field mean -nan
field stddev nan
field min nan
field max nan
field sum 0
field sqrsum 0
attr interpolationmode none
attr source sdn_msg_processed
attr title "Queueing Time - SDN, stats"
statistic FatTree Proc_Core:stats
field count 14307758
field mean 0.042913936015353
field stddev 0.042902524381785
field min 1.997e-09
field max 0.647605482461
field sum 614002.21133515
field sqrsum 52684.489707159
attr interpolationmode none
attr source core_msg_processed
attr title "Queueing Time - Core, stats"
statistic FatTree Proc_Agg:stats
field count 30997850
field mean 0.045688750949902
field stddev 0.045731411609323
field min 6.34e-10
field max 0.659245342503
field sum 1416253.0486324
field sqrsum 129534.55654255
attr interpolationmode none
attr source agg_msg_processed
attr title "Queueing Time - Aggregate, stats"
statistic FatTree Proc_Edge:stats
field count 34572642
field mean 0.050528488240919
field stddev 0.050512429447013
field min 3.96e-10
field max 0.900150141123
field sum 1746903.3347545
field sqrsum 176480.66925933
attr interpolationmode none
attr source edge_msg_processed
attr title "Queueing Time - Edge, stats"
statistic FatTree Proc_Server:stats
field count 36361844
field mean 0.034039731351667
field stddev 0.034045307925871
field min 3.2e-10
field max 0.573810852772
field sum 1237747.4012112
field sqrsum 84278.98278907
attr interpolationmode none
attr source server_msg_processed
attr title "Queueing Time - Server, stats"
statistic FatTree Proc_VNF:stats
field count 18479279
field mean 0.057794050401747
field stddev 0.057805068672664
field min 6.17e-10
field max 0.962051265956
field sum 1067992.381914
field sqrsum 123470.74485884
attr interpolationmode none
attr source vnf_msg_processed
attr title "Queueing Time - VNF, stats"
statistic FatTree Rec_SDN:stats
field count 1
field mean 0
field stddev -nan
field min 0
field max 0
field sum 0
field sqrsum 0
attr interpolationmode none
attr source sdn_received_count
attr title "Arrival Rate - SDN, stats"
statistic FatTree Rec_Core:stats
field count 4
field mean 16.726616814909
field stddev 0.011425204320634
field min 16.716018126725
field max 16.739506858579
field sum 66.906467259636
field sqrsum 1119.1192318971
attr interpolationmode none
attr source core_received_count
attr title "Arrival Rate - Core, stats"
statistic FatTree Rec_Agg:stats
field count 8
field mean 18.11916239249
field stddev 0.0088087837145048
field min 18.105687819359
field max 18.131916825325
field sum 144.95329913992
field sqrsum 2626.4329096061
attr interpolationmode none
attr source agg_received_count
attr title "Arrival Rate - Aggregate, stats"
statistic FatTree Rec_Edge:stats
field count 8
field mean 20.208731294689
field stddev 0.0084123354061062
field min 20.195539633817
field max 20.217419740595
field sum 161.66985035751
field sqrsum 3267.1430596993
attr interpolationmode none
attr source edge_received_count
attr title "Arrival Rate - Edge, stats"
statistic FatTree Rec_Server:stats
field count 16
field mean 10.627285410733
field stddev 0.0063829288972212
field min 10.610799634084
field max 10.638548416649
field sum 170.03656657172
field sqrsum 1807.0277343455
attr interpolationmode none
attr source server_received_count
attr title "Arrival Rate - Server, stats"
statistic FatTree Rec_VNF:stats
field count 32
field mean 2.7004213320998
field stddev 0.0038123453915495
field min 2.6897286808054
field max 2.7062404690147
field sum 86.413482627195
field sqrsum 233.35326242082
attr interpolationmode none
attr source vnf_received_count
attr title "Arrival Rate - VNF, stats"
scalar FatTree Time_In_System:mean 0.32917375025485
attr interpolationmode none
attr source completed
attr title "Time in System, mean"

