version 2
run MultipleServices-88-20180401-11:26:41-22821
attr configname MultipleServices
attr datetime 20180401-11:26:41
attr experiment MultipleServices
attr inifile omnetpp.ini
attr iterationvars "$0=1.7, $1=\"100 100.100 100.100.100 100.100.100.100\""
attr iterationvarsf 1.7,100_100.100_100.100.100_100.100.100.100-
attr measurement "$0=1.7, $1=\"100 100.100 100.100.100 100.100.100.100\""
attr network FatTree
attr processid 22821
attr repetition 0
attr replication #0
attr resultdir results
attr runnumber 88
attr seedset 88
param FatTree.vms[*].service_rate 20
param FatTree.servers[*].service_rate 40
param FatTree.edge[*].service_rate 40
param FatTree.aggregate[*].service_rate 40
param FatTree.core[*].service_rate 40
param FatTree.sdn.service_rate 40
param FatTree.vms[*].production_rate 1.7
param FatTree.vnf_chains "\"100 100.100 100.100.100 100.100.100.100\""
param FatTree.k 4
param FatTree.vm_k 2
param FatTree.p_sdn 0
param FatTree.vnf_chains "\"100\""
param FatTree.prob_service "\"EQUAL\""

statistic FatTree Proc_SDN:stats
field count 0
field mean -nan
field stddev nan
field min nan
field max nan
field sum 0
field sqrsum 0
attr interpolationmode none
attr source sdn_msg_processed
attr title "Queueing Time - SDN, stats"
statistic FatTree Proc_Core:stats
field count 14858462
field mean 0.073006548513908
field stddev 0.072896170442876
field min 6e-10
field max 0.994047901481
field sum 1084765.0268451
field sqrsum 158150.60828626
attr interpolationmode none
attr source core_msg_processed
attr title "Queueing Time - Core, stats"
statistic FatTree Proc_Agg:stats
field count 32195782
field mean 0.087097771702801
field stddev 0.087141526858367
field min 1.86e-10
field max 1.473363907043
field sum 2804180.8704292
field sqrsum 488721.25931806
attr interpolationmode none
attr source agg_msg_processed
attr title "Queueing Time - Aggregate, stats"
statistic FatTree Proc_Edge:stats
field count 35913572
field mean 0.12216393617822
field stddev 0.12235845985352
field min 8.15e-10
field max 1.839512853172
field sum 4387343.3177397
field sqrsum 1073658.4863931
attr interpolationmode none
attr source edge_msg_processed
attr title "Queueing Time - Edge, stats"
statistic FatTree Proc_Server:stats
field count 37771669
field mean 0.042945840708219
field stddev 0.042912813110912
field min 2.44e-10
field max 0.767247821141
field sum 1622136.0801576
field sqrsum 139220.8842572
attr interpolationmode none
attr source server_msg_processed
attr title "Queueing Time - Server, stats"
statistic FatTree Proc_VNF:stats
field count 19195358
field mean 0.063536571787433
field stddev 0.063552310977335
field min 4.796e-09
field max 0.960552848786
field sum 1219607.2415525
field sqrsum 155017.71808692
attr interpolationmode none
attr source vnf_msg_processed
attr title "Queueing Time - VNF, stats"
statistic FatTree Rec_SDN:stats
field count 1
field mean 0
field stddev -nan
field min 0
field max 0
field sum 0
field sqrsum 0
attr interpolationmode none
attr source sdn_received_count
attr title "Arrival Rate - SDN, stats"
statistic FatTree Rec_Core:stats
field count 4
field mean 26.315532398563
field stddev 0.0092723738291973
field min 26.305451417821
field max 26.327866191586
field sum 105.26212959425
field sqrsum 2770.02923961
attr interpolationmode none
attr source core_received_count
attr title "Arrival Rate - Core, stats"
statistic FatTree Rec_Agg:stats
field count 8
field mean 28.510641160046
field stddev 0.0080214435679955
field min 28.497033961339
field max 28.52149610224
field sum 228.08512928037
field sqrsum 6502.8537252603
attr interpolationmode none
attr source agg_received_count
attr title "Arrival Rate - Aggregate, stats"
statistic FatTree Rec_Edge:stats
field count 8
field mean 31.802914664928
field stddev 0.012482706349592
field min 31.78522601504
field max 31.818571887389
field sum 254.42331731942
field sqrsum 8091.404140203
attr interpolationmode none
attr source edge_received_count
attr title "Arrival Rate - Edge, stats"
statistic FatTree Rec_Server:stats
field count 16
field mean 16.724155331822
field stddev 0.010503545115899
field min 16.701358447798
field max 16.744983661719
field sum 267.58648530916
field sqrsum 4475.1595998736
attr interpolationmode none
attr source server_received_count
attr title "Arrival Rate - Server, stats"
statistic FatTree Rec_VNF:stats
field count 32
field mean 4.2495635335582
field stddev 0.0045810931181507
field min 4.2386521382263
field max 4.2614990552278
field sum 135.98603307386
field sqrsum 577.88193780277
attr interpolationmode none
attr source vnf_received_count
attr title "Arrival Rate - VNF, stats"
scalar FatTree Time_In_System:mean 1.4481140484123
attr interpolationmode none
attr source completed
attr title "Time in System, mean"

