version 2
run MultipleServices-80-20180401-11:10:41-22821
attr configname MultipleServices
attr datetime 20180401-11:10:41
attr experiment MultipleServices
attr inifile omnetpp.ini
attr iterationvars "$0=1.6, $1=\"100\""
attr iterationvarsf 1.6,100-
attr measurement "$0=1.6, $1=\"100\""
attr network FatTree
attr processid 22821
attr repetition 0
attr replication #0
attr resultdir results
attr runnumber 80
attr seedset 80
param FatTree.vms[*].service_rate 20
param FatTree.servers[*].service_rate 40
param FatTree.edge[*].service_rate 40
param FatTree.aggregate[*].service_rate 40
param FatTree.core[*].service_rate 40
param FatTree.sdn.service_rate 40
param FatTree.vms[*].production_rate 1.6
param FatTree.vnf_chains "\"100\""
param FatTree.k 4
param FatTree.vm_k 2
param FatTree.p_sdn 0
param FatTree.vnf_chains "\"100\""
param FatTree.prob_service "\"EQUAL\""

statistic FatTree Proc_SDN:stats
field count 0
field mean -nan
field stddev nan
field min nan
field max nan
field sum 0
field sqrsum 0
attr interpolationmode none
attr source sdn_msg_processed
attr title "Queueing Time - SDN, stats"
statistic FatTree Proc_Core:stats
field count 14482972
field mean 0.033243064606348
field stddev 0.033230671076554
field min 3.277e-09
field max 0.539109943271
field sum 481458.37388792
field sqrsum 31998.370839745
attr interpolationmode none
attr source core_msg_processed
attr title "Queueing Time - Core, stats"
statistic FatTree Proc_Agg:stats
field count 31380825
field mean 0.034178376597787
field stddev 0.034183081483417
field min 1.2e-11
field max 0.70289572855
field sum 1072545.6547993
field sqrsum 73325.830551538
attr interpolationmode none
attr source agg_msg_processed
attr title "Queueing Time - Aggregate, stats"
statistic FatTree Proc_Edge:stats
field count 35002686
field mean 0.035686842096711
field stddev 0.035685271403509
field min 2.515e-09
field max 0.623147916588
field sum 1249135.3282428
field sqrsum 89151.465229024
attr interpolationmode none
attr source edge_msg_processed
attr title "Queueing Time - Edge, stats"
statistic FatTree Proc_Server:stats
field count 36813649
field mean 0.029672279237159
field stddev 0.02966539952177
field min 1.275e-09
field max 0.558341727903
field sum 1092344.8728668
field sqrsum 64809.695000672
attr interpolationmode none
attr source server_msg_processed
attr title "Queueing Time - Server, stats"
statistic FatTree Proc_VNF:stats
field count 18708808
field mean 0.054329164385557
field stddev 0.054339398171381
field min 6.764e-09
field max 0.91385336884
field sum 1016433.9052898
field sqrsum 110464.81239548
attr interpolationmode none
attr source vnf_msg_processed
attr title "Queueing Time - VNF, stats"
statistic FatTree Rec_SDN:stats
field count 1
field mean 0
field stddev -nan
field min 0
field max 0
field sum 0
field sqrsum 0
attr interpolationmode none
attr source sdn_received_count
attr title "Arrival Rate - SDN, stats"
statistic FatTree Rec_Core:stats
field count 4
field mean 9.9091189716921
field stddev 0.0050601091943171
field min 9.9034326615401
field max 9.9136079478571
field sum 39.636475886768
field sqrsum 392.76263199471
attr interpolationmode none
attr source core_received_count
attr title "Arrival Rate - Core, stats"
statistic FatTree Rec_Agg:stats
field count 8
field mean 10.735237002894
field stddev 0.0049008595541382
field min 10.7247983031
field max 10.741801814097
field sum 85.88189602315
field sqrsum 921.96267619536
attr interpolationmode none
attr source agg_received_count
attr title "Arrival Rate - Aggregate, stats"
statistic FatTree Rec_Edge:stats
field count 8
field mean 11.974259764659
field stddev 0.0051753572689935
field min 11.968301488645
field max 11.982705074413
field sum 95.794078117276
field sqrsum 1147.0633627826
attr interpolationmode none
attr source edge_received_count
attr title "Arrival Rate - Edge, stats"
statistic FatTree Rec_Server:stats
field count 16
field mean 6.296891644965
field stddev 0.0038945928542034
field min 6.2911978087136
field max 6.3037048174465
field sum 100.75026631944
field sqrsum 634.41373773268
attr interpolationmode none
attr source server_received_count
attr title "Arrival Rate - Server, stats"
statistic FatTree Rec_VNF:stats
field count 32
field mean 1.6000495763887
field stddev 0.0019937628637991
field min 1.5961214656727
field max 1.6047970056472
field sum 51.201586444438
field sqrsum 81.925199928652
attr interpolationmode none
attr source vnf_received_count
attr title "Arrival Rate - VNF, stats"
scalar FatTree Time_In_System:mean 0.26254566035499
attr interpolationmode none
attr source completed
attr title "Time in System, mean"

