version 2
run MultipleServices-66-20180401-10:42:41-22821
attr configname MultipleServices
attr datetime 20180401-10:42:41
attr experiment MultipleServices
attr inifile omnetpp.ini
attr iterationvars "$0=1.3, $1=\"100 100.100\""
attr iterationvarsf 1.3,100_100.100-
attr measurement "$0=1.3, $1=\"100 100.100\""
attr network FatTree
attr processid 22821
attr repetition 0
attr replication #0
attr resultdir results
attr runnumber 66
attr seedset 66
param FatTree.vms[*].service_rate 20
param FatTree.servers[*].service_rate 40
param FatTree.edge[*].service_rate 40
param FatTree.aggregate[*].service_rate 40
param FatTree.core[*].service_rate 40
param FatTree.sdn.service_rate 40
param FatTree.vms[*].production_rate 1.3
param FatTree.vnf_chains "\"100 100.100\""
param FatTree.k 4
param FatTree.vm_k 2
param FatTree.p_sdn 0
param FatTree.vnf_chains "\"100\""
param FatTree.prob_service "\"EQUAL\""

statistic FatTree Proc_SDN:stats
field count 0
field mean -nan
field stddev nan
field min nan
field max nan
field sum 0
field sqrsum 0
attr interpolationmode none
attr source sdn_msg_processed
attr title "Queueing Time - SDN, stats"
statistic FatTree Proc_Core:stats
field count 14876332
field mean 0.035779232234232
field stddev 0.035785668992064
field min 3.813e-09
field max 0.547886289034
field sum 532263.73742154
field sqrsum 38094.827183432
attr interpolationmode none
attr source core_msg_processed
attr title "Queueing Time - Core, stats"
statistic FatTree Proc_Agg:stats
field count 32234187
field mean 0.037147453611431
field stddev 0.037142715805233
field min 8.1e-11
field max 0.604545039764
field sum 1197417.9662847
field sqrsum 88950.709787557
attr interpolationmode none
attr source agg_msg_processed
attr title "Queueing Time - Aggregate, stats"
statistic FatTree Proc_Edge:stats
field count 35955645
field mean 0.039340441099791
field stddev 0.039328140597479
field min 1.566e-09
field max 0.655814346707
field sum 1414510.9343275
field sqrsum 111260.17369728
attr interpolationmode none
attr source edge_msg_processed
attr title "Queueing Time - Edge, stats"
statistic FatTree Proc_Server:stats
field count 37816360
field mean 0.030941449800083
field stddev 0.030945180400568
field min 7.74e-10
field max 0.531442823174
field sum 1170093.0045619
field sqrsum 72417.477791919
attr interpolationmode none
attr source server_msg_processed
attr title "Queueing Time - Server, stats"
statistic FatTree Proc_VNF:stats
field count 19218564
field mean 0.055409334594789
field stddev 0.055412159569383
field min 3.399e-09
field max 1.04703145266
field sum 1064887.8431074
field sqrsum 118015.46725439
attr interpolationmode none
attr source vnf_msg_processed
attr title "Queueing Time - VNF, stats"
statistic FatTree Rec_SDN:stats
field count 1
field mean 0
field stddev -nan
field min 0
field max 0
field sum 0
field sqrsum 0
attr interpolationmode none
attr source sdn_received_count
attr title "Arrival Rate - SDN, stats"
statistic FatTree Rec_Core:stats
field count 4
field mean 12.073175280172
field stddev 0.0036551536644741
field min 12.068005584026
field max 12.076140754224
field sum 48.292701120687
field sqrsum 583.04628546344
attr interpolationmode none
attr source core_received_count
attr title "Arrival Rate - Core, stats"
statistic FatTree Rec_Agg:stats
field count 8
field mean 13.080138758795
field stddev 0.0033082849763305
field min 13.074312503124
field max 13.083963684687
field sum 104.64111007036
field sqrsum 1368.7203162079
attr interpolationmode none
attr source agg_received_count
attr title "Arrival Rate - Aggregate, stats"
statistic FatTree Rec_Edge:stats
field count 8
field mean 14.590248798628
field stddev 0.0081490298165253
field min 14.580886941504
field max 14.600367849866
field sum 116.72199038902
field sqrsum 1703.0033448937
attr interpolationmode none
attr source edge_received_count
attr title "Arrival Rate - Edge, stats"
statistic FatTree Rec_Server:stats
field count 16
field mean 7.67265038758
field stddev 0.005160659705328
field min 7.6643269333154
field max 7.6798960778758
field sum 122.76240620128
field sqrsum 941.91342300662
attr interpolationmode none
attr source server_received_count
attr title "Arrival Rate - Server, stats"
statistic FatTree Rec_VNF:stats
field count 32
field mean 1.9496496579025
field stddev 0.0026307348172257
field min 1.9448283278594
field max 1.9541808519375
field sum 62.38878905288
field sqrsum 121.63649577764
attr interpolationmode none
attr source vnf_received_count
attr title "Arrival Rate - VNF, stats"
scalar FatTree Time_In_System:mean 0.41987715398426
attr interpolationmode none
attr source completed
attr title "Time in System, mean"

