version 2
run MultipleServices-85-20191029-16:16:41-20630
attr configname MultipleServices
attr datetime 20191029-16:16:41
attr experiment MultipleServices
attr inifile omnetpp.ini
attr iterationvars "$0=17, $1=\"100\""
attr iterationvarsf 17,100-
attr measurement "$0=17, $1=\"100\""
attr network FatTree
attr processid 20630
attr repetition 0
attr replication #0
attr resultdir results
attr runnumber 85
attr seedset 85
param FatTree.vms[*].service_rate 20
param FatTree.servers[*].service_rate 40
param FatTree.edge[*].service_rate 40
param FatTree.aggregate[*].service_rate 40
param FatTree.core[*].service_rate 40
param FatTree.sdn.service_rate 40
param FatTree.k 4
param FatTree.vm_k 2
param FatTree.p_sdn 0
param FatTree.vms[*].production_rate 17
param FatTree.vnf_chains "\"100\""
param FatTree.prob_service "\"EQUAL\""

scalar FatTree Time_In_System:mean 2983.267357279
attr interpolationmode none
attr source completed
attr title "Time in System, mean"

