version 2
run MultipleServices-199-20180401-15:12:52-22821
attr configname MultipleServices
attr datetime 20180401-15:12:52
attr experiment MultipleServices
attr inifile omnetpp.ini
attr iterationvars "$0=3.9, $1=\"100 100.100 100.100.100 100.100.100.100 100.100.100.100.100\""
attr iterationvarsf 3.9,100_100.100_100.100.100_100.100.100.100_100.100.100.100.100-
attr measurement "$0=3.9, $1=\"100 100.100 100.100.100 100.100.100.100 100.100.100.100.100\""
attr network FatTree
attr processid 22821
attr repetition 0
attr replication #0
attr resultdir results
attr runnumber 199
attr seedset 199
param FatTree.vms[*].service_rate 20
param FatTree.servers[*].service_rate 40
param FatTree.edge[*].service_rate 40
param FatTree.aggregate[*].service_rate 40
param FatTree.core[*].service_rate 40
param FatTree.sdn.service_rate 40
param FatTree.vms[*].production_rate 3.9
param FatTree.vnf_chains "\"100 100.100 100.100.100 100.100.100.100 100.100.100.100.100\""
param FatTree.k 4
param FatTree.vm_k 2
param FatTree.p_sdn 0
param FatTree.vnf_chains "\"100\""
param FatTree.prob_service "\"EQUAL\""

statistic FatTree Proc_SDN:stats
field count 0
field mean -nan
field stddev nan
field min nan
field max nan
field sum 0
field sqrsum 0
attr interpolationmode none
attr source sdn_msg_processed
attr title "Queueing Time - SDN, stats"
statistic FatTree Proc_Core:stats
field count 13067164
field mean 0.31086015228869
field stddev 0.31041729388308
field min 2.165e-09
field max 3.294191499718
field sum 4062060.5910213
field sqrsum 2521870.1789278
attr interpolationmode none
attr source core_msg_processed
attr title "Queueing Time - Core, stats"
statistic FatTree Proc_Agg:stats
field count 28311828
field mean 5.7513467259502
field stddev 5.6184692690495
field min 1.28901e-07
field max 42.574302354847
field sum 162831139.27346
field sqrsum 1830223358.0225
attr interpolationmode none
attr source agg_msg_processed
attr title "Queueing Time - Aggregate, stats"
statistic FatTree Proc_Edge:stats
field count 28422645
field mean 9197.2887111479
field stddev 5312.075218284
field min 4.804666e-06
field max 18449.808889436
field sum 261411271999.46
field sqrsum 3.2063091773021e+15
attr interpolationmode none
attr source edge_msg_processed
attr title "Queueing Time - Edge, stats"
statistic FatTree Proc_Server:stats
field count 34467159
field mean 0.063454179076035
field stddev 0.063354557344156
field min 3.242e-09
field max 1.075370817702
field sum 2187085.2794282
field sqrsum 277123.97755934
attr interpolationmode none
attr source server_msg_processed
attr title "Queueing Time - Server, stats"
statistic FatTree Proc_VNF:stats
field count 13864144
field mean 0.066155021021834
field stddev 0.066180966092451
field min 7.33e-10
field max 0.993761989452
field sum 917182.73776974
field sqrsum 121400.08429052
attr interpolationmode none
attr source vnf_msg_processed
attr title "Queueing Time - VNF, stats"
statistic FatTree Rec_SDN:stats
field count 1
field mean 0
field stddev -nan
field min 0
field max 0
field sum 0
field sqrsum 0
attr interpolationmode none
attr source sdn_received_count
attr title "Arrival Rate - SDN, stats"
statistic FatTree Rec_Core:stats
field count 4
field mean 36.78762594825
field stddev 0.0097500650737965
field min 36.778760669759
field max 36.798366195135
field sum 147.150503793
field sqrsum 5413.3179768246
attr interpolationmode none
attr source core_received_count
attr title "Arrival Rate - Core, stats"
statistic FatTree Rec_Agg:stats
field count 8
field mean 39.855095356342
field stddev 0.012242465711938
field min 39.830533551899
field max 39.865927099433
field sum 318.84076285074
field sqrsum 12707.430056051
attr interpolationmode none
attr source agg_received_count
attr title "Arrival Rate - Aggregate, stats"
statistic FatTree Rec_Edge:stats
field count 8
field mean 50.460369854387
field stddev 0.016965543109316
field min 50.435230920033
field max 50.484926028294
field sum 403.6829588351
field sqrsum 20369.99342154
attr interpolationmode none
attr source edge_received_count
attr title "Arrival Rate - Edge, stats"
statistic FatTree Rec_Server:stats
field count 16
field mean 24.258590240682
field stddev 0.019394928608127
field min 24.228893387663
field max 24.292225653437
field sum 388.13744385091
field sqrsum 9415.6728498939
attr interpolationmode none
attr source server_received_count
attr title "Arrival Rate - Server, stats"
statistic FatTree Rec_VNF:stats
field count 32
field mean 4.8789119872645
field stddev 0.0071841897397153
field min 4.8649179945505
field max 4.8920346545759
field sum 156.12518359246
field sqrsum 761.7226297332
attr interpolationmode none
attr source vnf_received_count
attr title "Arrival Rate - VNF, stats"
scalar FatTree Time_In_System:mean 24416.574292414
attr interpolationmode none
attr source completed
attr title "Time in System, mean"

