version 2
run MultipleServices-196-20180401-15:06:35-22821
attr configname MultipleServices
attr datetime 20180401-15:06:35
attr experiment MultipleServices
attr inifile omnetpp.ini
attr iterationvars "$0=3.9, $1=\"100 100.100\""
attr iterationvarsf 3.9,100_100.100-
attr measurement "$0=3.9, $1=\"100 100.100\""
attr network FatTree
attr processid 22821
attr repetition 0
attr replication #0
attr resultdir results
attr runnumber 196
attr seedset 196
param FatTree.vms[*].service_rate 20
param FatTree.servers[*].service_rate 40
param FatTree.edge[*].service_rate 40
param FatTree.aggregate[*].service_rate 40
param FatTree.core[*].service_rate 40
param FatTree.sdn.service_rate 40
param FatTree.vms[*].production_rate 3.9
param FatTree.vnf_chains "\"100 100.100\""
param FatTree.k 4
param FatTree.vm_k 2
param FatTree.p_sdn 0
param FatTree.vnf_chains "\"100\""
param FatTree.prob_service "\"EQUAL\""

statistic FatTree Proc_SDN:stats
field count 0
field mean -nan
field stddev nan
field min nan
field max nan
field sum 0
field sqrsum 0
attr interpolationmode none
attr source sdn_msg_processed
attr title "Queueing Time - SDN, stats"
statistic FatTree Proc_Core:stats
field count 12694037
field mean 0.1614976656367
field stddev 0.16146161285024
field min 7.456e-09
field max 2.241534128033
field sum 2050057.3430058
field sqrsum 662011.12050431
attr interpolationmode none
attr source core_msg_processed
attr title "Queueing Time - Core, stats"
statistic FatTree Proc_Agg:stats
field count 27502991
field mean 0.29618376560465
field stddev 0.29650615912748
field min 8.557e-09
field max 4.354159219348
field sum 8145939.4397707
field sqrsum 4830645.2022215
attr interpolationmode none
attr source agg_msg_processed
attr title "Queueing Time - Aggregate, stats"
statistic FatTree Proc_Edge:stats
field count 30049860
field mean 1992.3133766656
field stddev 1146.7021270285
field min 0.000213402328
field max 4091.2937615472
field sum 59868738044.929
field sqrsum 1.5879062157882e+14
attr interpolationmode none
attr source edge_msg_processed
attr title "Queueing Time - Edge, stats"
statistic FatTree Proc_Server:stats
field count 32358950
field mean 0.054156048650668
field stddev 0.054102987001369
field min 1.51e-10
field max 0.994161644597
field sum 1752432.8704845
field sqrsum 189623.79380593
attr interpolationmode none
attr source server_msg_processed
attr title "Queueing Time - Server, stats"
statistic FatTree Proc_VNF:stats
field count 15792224
field mean 0.06783852708771
field stddev 0.067855810982743
field min 9.302e-09
field max 1.353753384197
field sum 1071321.2155992
field sqrsum 145390.73992825
attr interpolationmode none
attr source vnf_msg_processed
attr title "Queueing Time - VNF, stats"
statistic FatTree Rec_SDN:stats
field count 1
field mean 0
field stddev -nan
field min 0
field max 0
field sum 0
field sqrsum 0
attr interpolationmode none
attr source sdn_received_count
attr title "Arrival Rate - SDN, stats"
statistic FatTree Rec_Core:stats
field count 4
field mean 33.79899639754
field stddev 0.028403586793401
field min 33.770552041233
field max 33.838160306266
field sum 135.19598559016
field sqrsum 4569.4910502149
attr interpolationmode none
attr source core_received_count
attr title "Arrival Rate - Core, stats"
statistic FatTree Rec_Agg:stats
field count 8
field mean 36.614717419964
field stddev 0.013048356698343
field min 36.599352994421
field max 36.639589923422
field sum 292.91773935971
field sqrsum 10725.101445768
attr interpolationmode none
attr source agg_received_count
attr title "Arrival Rate - Aggregate, stats"
statistic FatTree Rec_Edge:stats
field count 8
field mean 41.770088592404
field stddev 0.024075272958892
field min 41.743673123067
field max 41.810450662727
field sum 334.16070873923
field sqrsum 13957.92646547
attr interpolationmode none
attr source edge_received_count
attr title "Arrival Rate - Edge, stats"
statistic FatTree Rec_Server:stats
field count 16
field mean 21.539591988774
field stddev 0.013749276479812
field min 21.504188976171
field max 21.564949082034
field sum 344.63347182039
field sqrsum 7423.2672043251
attr interpolationmode none
attr source server_received_count
attr title "Arrival Rate - Server, stats"
statistic FatTree Rec_VNF:stats
field count 32
field mean 5.2560140839875
field stddev 0.0060667161716567
field min 5.2428782390149
field max 5.2669799251793
field sum 168.1924506876
field sqrsum 884.02303059081
attr interpolationmode none
attr source vnf_received_count
attr title "Arrival Rate - VNF, stats"
scalar FatTree Time_In_System:mean 5248.1263363579
attr interpolationmode none
attr source completed
attr title "Time in System, mean"

