version 2
run MultipleServices-95-20180401-11:40:41-22821
attr configname MultipleServices
attr datetime 20180401-11:40:41
attr experiment MultipleServices
attr inifile omnetpp.ini
attr iterationvars "$0=1.9, $1=\"100\""
attr iterationvarsf 1.9,100-
attr measurement "$0=1.9, $1=\"100\""
attr network FatTree
attr processid 22821
attr repetition 0
attr replication #0
attr resultdir results
attr runnumber 95
attr seedset 95
param FatTree.vms[*].service_rate 20
param FatTree.servers[*].service_rate 40
param FatTree.edge[*].service_rate 40
param FatTree.aggregate[*].service_rate 40
param FatTree.core[*].service_rate 40
param FatTree.sdn.service_rate 40
param FatTree.vms[*].production_rate 1.9
param FatTree.vnf_chains "\"100\""
param FatTree.k 4
param FatTree.vm_k 2
param FatTree.p_sdn 0
param FatTree.vnf_chains "\"100\""
param FatTree.prob_service "\"EQUAL\""

statistic FatTree Proc_SDN:stats
field count 0
field mean -nan
field stddev nan
field min nan
field max nan
field sum 0
field sqrsum 0
attr interpolationmode none
attr source sdn_msg_processed
attr title "Queueing Time - SDN, stats"
statistic FatTree Proc_Core:stats
field count 14635925
field mean 0.035405239900443
field stddev 0.035414244806669
field min 2.91e-10
field max 0.573380192924
field sum 518188.4357899
field sqrsum 36702.50417473
attr interpolationmode none
attr source core_msg_processed
attr title "Queueing Time - Core, stats"
statistic FatTree Proc_Agg:stats
field count 31709800
field mean 0.036701024910006
field stddev 0.036702291880401
field min 7.16e-10
field max 0.623031316451
field sum 1163782.1596913
field sqrsum 85426.943724228
attr interpolationmode none
attr source agg_msg_processed
attr title "Queueing Time - Aggregate, stats"
statistic FatTree Proc_Edge:stats
field count 35366926
field mean 0.03877554480864
field stddev 0.038759919279416
field min 5.82e-10
field max 0.599327151471
field sum 1371371.8238569
field sqrsum 106308.52952227
attr interpolationmode none
attr source edge_msg_processed
attr title "Queueing Time - Edge, stats"
statistic FatTree Proc_Server:stats
field count 37195344
field mean 0.03073967854985
field stddev 0.030741222619424
field min 8.5e-10
field max 0.557349326815
field sum 1143372.9181111
field sqrsum 70297.361969002
attr interpolationmode none
attr source server_msg_processed
attr title "Queueing Time - Server, stats"
statistic FatTree Proc_VNF:stats
field count 18902285
field mean 0.05523328617463
field stddev 0.055225680749418
field min 9.78e-10
field max 0.934125965283
field sum 1044035.3167594
field sqrsum 115315.12023243
attr interpolationmode none
attr source vnf_msg_processed
attr title "Queueing Time - VNF, stats"
statistic FatTree Rec_SDN:stats
field count 1
field mean 0
field stddev -nan
field min 0
field max 0
field sum 0
field sqrsum 0
attr interpolationmode none
attr source sdn_received_count
attr title "Arrival Rate - SDN, stats"
statistic FatTree Rec_Core:stats
field count 4
field mean 11.764752963107
field stddev 0.0025034204057896
field min 11.761500678934
field max 11.767018147684
field sum 47.059011852428
field sqrsum 553.63766793308
attr interpolationmode none
attr source core_received_count
attr title "Arrival Rate - Core, stats"
statistic FatTree Rec_Agg:stats
field count 8
field mean 12.744598019935
field stddev 0.0059722211612321
field min 12.736391749761
field max 12.751706262383
field sum 101.95678415948
field sqrsum 1299.3984791899
attr interpolationmode none
attr source agg_received_count
attr title "Arrival Rate - Aggregate, stats"
statistic FatTree Rec_Edge:stats
field count 8
field mean 14.214447193621
field stddev 0.005724242325277
field min 14.205585000589
field max 14.222102038451
field sum 113.71557754897
field sqrsum 1616.4043015306
attr interpolationmode none
attr source edge_received_count
attr title "Arrival Rate - Edge, stats"
statistic FatTree Rec_Server:stats
field count 16
field mean 7.4746571534158
field stddev 0.0043568245343923
field min 7.466112673018
field max 7.4818773287776
field sum 119.59451445465
field sqrsum 893.92827770655
attr interpolationmode none
attr source server_received_count
attr title "Arrival Rate - Server, stats"
statistic FatTree Rec_VNF:stats
field count 32
field mean 1.8992712585926
field stddev 0.0017942614516268
field min 1.8959932519544
field max 1.902902949125
field sum 60.776680274962
field sqrsum 115.43150183951
attr interpolationmode none
attr source vnf_received_count
attr title "Arrival Rate - VNF, stats"
scalar FatTree Time_In_System:mean 0.27725475617865
attr interpolationmode none
attr source completed
attr title "Time in System, mean"

