version 2
run MultipleServices-189-20180401-14:52:02-22821
attr configname MultipleServices
attr datetime 20180401-14:52:02
attr experiment MultipleServices
attr inifile omnetpp.ini
attr iterationvars "$0=3.7, $1=\"100 100.100 100.100.100 100.100.100.100 100.100.100.100.100\""
attr iterationvarsf 3.7,100_100.100_100.100.100_100.100.100.100_100.100.100.100.100-
attr measurement "$0=3.7, $1=\"100 100.100 100.100.100 100.100.100.100 100.100.100.100.100\""
attr network FatTree
attr processid 22821
attr repetition 0
attr replication #0
attr resultdir results
attr runnumber 189
attr seedset 189
param FatTree.vms[*].service_rate 20
param FatTree.servers[*].service_rate 40
param FatTree.edge[*].service_rate 40
param FatTree.aggregate[*].service_rate 40
param FatTree.core[*].service_rate 40
param FatTree.sdn.service_rate 40
param FatTree.vms[*].production_rate 3.7
param FatTree.vnf_chains "\"100 100.100 100.100.100 100.100.100.100 100.100.100.100.100\""
param FatTree.k 4
param FatTree.vm_k 2
param FatTree.p_sdn 0
param FatTree.vnf_chains "\"100\""
param FatTree.prob_service "\"EQUAL\""

statistic FatTree Proc_SDN:stats
field count 0
field mean -nan
field stddev nan
field min nan
field max nan
field sum 0
field sqrsum 0
attr interpolationmode none
attr source sdn_msg_processed
attr title "Queueing Time - SDN, stats"
statistic FatTree Proc_Core:stats
field count 13099049
field mean 0.28561244260375
field stddev 0.28653611687999
field min 5.4727e-08
field max 3.295123309329
field sum 3741251.3806762
field sqrsum 2144018.379449
attr interpolationmode none
attr source core_msg_processed
attr title "Queueing Time - Core, stats"
statistic FatTree Proc_Agg:stats
field count 28382662
field mean 2.1245195821916
field stddev 2.0949781185174
field min 2.96872e-07
field max 16.910505359366
field sum 60299521.213725
field sqrsum 252677120.10524
attr interpolationmode none
attr source agg_msg_processed
attr title "Queueing Time - Aggregate, stats"
statistic FatTree Proc_Edge:stats
field count 28716511
field mean 8635.7756097666
field stddev 4989.6743902667
field min 1.1246736e-05
field max 17364.882438894
field sum 247989345291.39
field sqrsum 2.8565309965008e+15
attr interpolationmode none
attr source edge_msg_processed
attr title "Queueing Time - Edge, stats"
statistic FatTree Proc_Server:stats
field count 34390523
field mean 0.062275219194437
field stddev 0.062167038131198
field min 8.91e-10
field max 0.993365131105
field sum 2141677.3580363
field sqrsum 266283.87457598
attr interpolationmode none
attr source server_msg_processed
attr title "Queueing Time - Server, stats"
statistic FatTree Proc_VNF:stats
field count 14108729
field mean 0.066320611452133
field stddev 0.066358072944686
field min 4.855e-09
field max 1.141398969436
field sum 935699.53409244
field sqrsum 124182.45127151
attr interpolationmode none
attr source vnf_msg_processed
attr title "Queueing Time - VNF, stats"
statistic FatTree Rec_SDN:stats
field count 1
field mean 0
field stddev -nan
field min 0
field max 0
field sum 0
field sqrsum 0
attr interpolationmode none
attr source sdn_received_count
attr title "Arrival Rate - SDN, stats"
statistic FatTree Rec_Core:stats
field count 4
field mean 36.502736042625
field stddev 0.022168077909216
field min 36.480465043502
field max 36.533389319697
field sum 146.0109441705
field sqrsum 5329.8004286613
attr interpolationmode none
attr source core_received_count
attr title "Arrival Rate - Core, stats"
statistic FatTree Rec_Agg:stats
field count 8
field mean 39.547599900728
field stddev 0.021516297861196
field min 39.514604434621
field max 39.579934928046
field sum 316.38079920582
field sqrsum 12512.104503922
attr interpolationmode none
attr source agg_received_count
attr title "Arrival Rate - Aggregate, stats"
statistic FatTree Rec_Edge:stats
field count 8
field mean 49.554299501028
field stddev 0.026529574629722
field min 49.510047315583
field max 49.581709104054
field sum 396.43439600823
field sqrsum 19645.033719029
attr interpolationmode none
attr source edge_received_count
attr title "Arrival Rate - Edge, stats"
statistic FatTree Rec_Server:stats
field count 16
field mean 23.95869958937
field stddev 0.015878362753713
field min 23.930578690983
field max 23.988273731756
field sum 383.33919342992
field sqrsum 9184.3123580549
attr interpolationmode none
attr source server_received_count
attr title "Arrival Rate - Server, stats"
statistic FatTree Rec_VNF:stats
field count 32
field mean 4.9145357614937
field stddev 0.0063944034145357
field min 4.9049144641527
field max 4.9300055647669
field sum 157.2651443678
field sqrsum 772.88644357225
attr interpolationmode none
attr source vnf_received_count
attr title "Arrival Rate - VNF, stats"
scalar FatTree Time_In_System:mean 23906.328332085
attr interpolationmode none
attr source completed
attr title "Time in System, mean"

