version 2
run MultipleServices-240-20180401-16:39:34-22821
attr configname MultipleServices
attr datetime 20180401-16:39:34
attr experiment MultipleServices
attr inifile omnetpp.ini
attr iterationvars "$0=4.8, $1=\"100\""
attr iterationvarsf 4.8,100-
attr measurement "$0=4.8, $1=\"100\""
attr network FatTree
attr processid 22821
attr repetition 0
attr replication #0
attr resultdir results
attr runnumber 240
attr seedset 240
param FatTree.vms[*].service_rate 20
param FatTree.servers[*].service_rate 40
param FatTree.edge[*].service_rate 40
param FatTree.aggregate[*].service_rate 40
param FatTree.core[*].service_rate 40
param FatTree.sdn.service_rate 40
param FatTree.vms[*].production_rate 4.8
param FatTree.vnf_chains "\"100\""
param FatTree.k 4
param FatTree.vm_k 2
param FatTree.p_sdn 0
param FatTree.vnf_chains "\"100\""
param FatTree.prob_service "\"EQUAL\""

statistic FatTree Proc_SDN:stats
field count 0
field mean -nan
field stddev nan
field min nan
field max nan
field sum 0
field sqrsum 0
attr interpolationmode none
attr source sdn_msg_processed
attr title "Queueing Time - SDN, stats"
statistic FatTree Proc_Core:stats
field count 13938794
field mean 0.097032166582139
field stddev 0.096682111339475
field min 2.2876e-08
field max 1.207562992271
field sum 1352511.3813621
field sqrsum 261529.01061541
attr interpolationmode none
attr source core_msg_processed
attr title "Queueing Time - Core, stats"
statistic FatTree Proc_Agg:stats
field count 30199263
field mean 0.12812598640237
field stddev 0.12802618443835
field min 1.641e-09
field max 1.717992228421
field sum 3869310.3604995
field sqrsum 990746.36813203
attr interpolationmode none
attr source agg_msg_processed
attr title "Queueing Time - Aggregate, stats"
statistic FatTree Proc_Edge:stats
field count 33682489
field mean 0.24518073355572
field stddev 0.24658013859976
field min 1.9197e-08
field max 3.654354703089
field sum 8258297.3610024
field sqrsum 4072730.1165258
attr interpolationmode none
attr source edge_msg_processed
attr title "Queueing Time - Edge, stats"
statistic FatTree Proc_Server:stats
field count 35424211
field mean 0.047417151595626
field stddev 0.04741286789261
field min 1.28e-10
field max 0.73907918798
field sum 1679715.1831424
field sqrsum 159280.22655315
attr interpolationmode none
attr source server_msg_processed
attr title "Queueing Time - Server, stats"
statistic FatTree Proc_VNF:stats
field count 18002127
field mean 0.065783315200353
field stddev 0.065743953051524
field min 1.75e-10
field max 1.04613254419
field sum 1184239.5947178
field sqrsum 155713.20820361
attr interpolationmode none
attr source vnf_msg_processed
attr title "Queueing Time - VNF, stats"
statistic FatTree Rec_SDN:stats
field count 1
field mean 0
field stddev -nan
field min 0
field max 0
field sum 0
field sqrsum 0
attr interpolationmode none
attr source sdn_received_count
attr title "Arrival Rate - SDN, stats"
statistic FatTree Rec_Core:stats
field count 4
field mean 29.731894151373
field stddev 0.011733743768886
field min 29.721339910371
field max 29.748062531889
field sum 118.92757660549
field sqrsum 3535.942532356
attr interpolationmode none
attr source core_received_count
attr title "Arrival Rate - Core, stats"
statistic FatTree Rec_Agg:stats
field count 8
field mean 32.208035767266
field stddev 0.021523444283987
field min 32.173720619303
field max 32.231730550243
field sum 257.66428613813
field sqrsum 8298.8637866943
attr interpolationmode none
attr source agg_received_count
attr title "Arrival Rate - Aggregate, stats"
statistic FatTree Rec_Edge:stats
field count 8
field mean 35.922967556056
field stddev 0.012172823824312
field min 35.902865865029
field max 35.93839364153
field sum 287.38374044845
field sqrsum 10323.677821511
attr interpolationmode none
attr source edge_received_count
attr title "Arrival Rate - Edge, stats"
statistic FatTree Rec_Server:stats
field count 16
field mean 18.890247920815
field stddev 0.0079782564672856
field min 18.872109152237
field max 18.904386188381
field sum 302.24396673303
field sqrsum 5709.4644189461
attr interpolationmode none
attr source server_received_count
attr title "Arrival Rate - Server, stats"
statistic FatTree Rec_VNF:stats
field count 32
field mean 4.7998903795819
field stddev 0.0047907317020754
field min 4.7898080718503
field max 4.8068637935664
field sum 153.59649214662
field sqrsum 737.2470364765
attr interpolationmode none
attr source vnf_received_count
attr title "Arrival Rate - VNF, stats"
scalar FatTree Time_In_System:mean 0.90789491350538
attr interpolationmode none
attr source completed
attr title "Time in System, mean"

