version 2
run MultipleServices-76-20180401-11:02:41-22821
attr configname MultipleServices
attr datetime 20180401-11:02:41
attr experiment MultipleServices
attr inifile omnetpp.ini
attr iterationvars "$0=1.5, $1=\"100 100.100\""
attr iterationvarsf 1.5,100_100.100-
attr measurement "$0=1.5, $1=\"100 100.100\""
attr network FatTree
attr processid 22821
attr repetition 0
attr replication #0
attr resultdir results
attr runnumber 76
attr seedset 76
param FatTree.vms[*].service_rate 20
param FatTree.servers[*].service_rate 40
param FatTree.edge[*].service_rate 40
param FatTree.aggregate[*].service_rate 40
param FatTree.core[*].service_rate 40
param FatTree.sdn.service_rate 40
param FatTree.vms[*].production_rate 1.5
param FatTree.vnf_chains "\"100 100.100\""
param FatTree.k 4
param FatTree.vm_k 2
param FatTree.p_sdn 0
param FatTree.vnf_chains "\"100\""
param FatTree.prob_service "\"EQUAL\""

statistic FatTree Proc_SDN:stats
field count 0
field mean -nan
field stddev nan
field min nan
field max nan
field sum 0
field sqrsum 0
attr interpolationmode none
attr source sdn_msg_processed
attr title "Queueing Time - SDN, stats"
statistic FatTree Proc_Core:stats
field count 14805720
field mean 0.038377511859411
field stddev 0.038361045384959
field min 5.7e-10
field max 0.615753677585
field sum 568206.69488712
field sqrsum 43594.008164129
attr interpolationmode none
attr source core_msg_processed
attr title "Queueing Time - Core, stats"
statistic FatTree Proc_Agg:stats
field count 32078343
field mean 0.040154669153247
field stddev 0.040131758165406
field min 5.448e-09
field max 0.621869895808
field sum 1288095.2501494
field sqrsum 103387.0693738
attr interpolationmode none
attr source agg_msg_processed
attr title "Queueing Time - Aggregate, stats"
statistic FatTree Proc_Edge:stats
field count 35778580
field mean 0.043144122890285
field stddev 0.043144436363341
field min 2.44e-10
field max 0.656783421906
field sum 1543635.4523599
field sqrsum 133198.56122715
attr interpolationmode none
attr source edge_msg_processed
attr title "Queueing Time - Edge, stats"
statistic FatTree Proc_Server:stats
field count 37629917
field mean 0.032102999359747
field stddev 0.032083961970346
field min 4.005e-09
field max 0.584827345631
field sum 1208033.2013584
field sqrsum 77516.99519113
attr interpolationmode none
attr source server_msg_processed
attr title "Queueing Time - Server, stats"
statistic FatTree Proc_VNF:stats
field count 19123944
field mean 0.056349874876814
field stddev 0.056362594654708
field min 1.281e-09
field max 0.906882925504
field sum 1077631.8515512
field sqrsum 121476.25438934
attr interpolationmode none
attr source vnf_msg_processed
attr title "Queueing Time - VNF, stats"
statistic FatTree Rec_SDN:stats
field count 1
field mean 0
field stddev -nan
field min 0
field max 0
field sum 0
field sqrsum 0
attr interpolationmode none
attr source sdn_received_count
attr title "Arrival Rate - SDN, stats"
statistic FatTree Rec_Core:stats
field count 4
field mean 13.93131629871
field stddev 0.0074606500381372
field min 13.924700540405
field max 13.939055540931
field sum 55.72526519484
field sqrsum 776.3264622427
attr interpolationmode none
attr source core_received_count
attr title "Arrival Rate - Core, stats"
statistic FatTree Rec_Agg:stats
field count 8
field mean 15.091920819969
field stddev 0.0084688041182641
field min 15.079943107646
field max 15.107215350386
field sum 120.73536655975
field sqrsum 1822.1290943341
attr interpolationmode none
attr source agg_received_count
attr title "Arrival Rate - Aggregate, stats"
statistic FatTree Rec_Edge:stats
field count 8
field mean 16.832774203437
field stddev 0.0082605383944552
field min 16.821501256151
field max 16.844983387321
field sum 134.6621936275
field sqrsum 2266.7387767267
attr interpolationmode none
attr source edge_received_count
attr title "Arrival Rate - Edge, stats"
statistic FatTree Rec_Server:stats
field count 16
field mean 8.8518862585068
field stddev 0.0057698142568301
field min 8.8397935161097
field max 8.8613109618379
field sum 141.63018013611
field sqrsum 1253.694744698
attr interpolationmode none
attr source server_received_count
attr title "Arrival Rate - Server, stats"
statistic FatTree Rec_VNF:stats
field count 32
field mean 2.2493145403415
field stddev 0.0025903113895014
field min 2.2447547387848
field max 2.2533060133509
field sum 71.978065290927
field sqrsum 161.90151684564
attr interpolationmode none
attr source vnf_received_count
attr title "Arrival Rate - VNF, stats"
scalar FatTree Time_In_System:mean 0.44596764906255
attr interpolationmode none
attr source completed
attr title "Time in System, mean"

