version 2
run MultipleServices-183-20180401-14:39:32-22821
attr configname MultipleServices
attr datetime 20180401-14:39:32
attr experiment MultipleServices
attr inifile omnetpp.ini
attr iterationvars "$0=3.6, $1=\"100 100.100 100.100.100 100.100.100.100\""
attr iterationvarsf 3.6,100_100.100_100.100.100_100.100.100.100-
attr measurement "$0=3.6, $1=\"100 100.100 100.100.100 100.100.100.100\""
attr network FatTree
attr processid 22821
attr repetition 0
attr replication #0
attr resultdir results
attr runnumber 183
attr seedset 183
param FatTree.vms[*].service_rate 20
param FatTree.servers[*].service_rate 40
param FatTree.edge[*].service_rate 40
param FatTree.aggregate[*].service_rate 40
param FatTree.core[*].service_rate 40
param FatTree.sdn.service_rate 40
param FatTree.vms[*].production_rate 3.6
param FatTree.vnf_chains "\"100 100.100 100.100.100 100.100.100.100\""
param FatTree.k 4
param FatTree.vm_k 2
param FatTree.p_sdn 0
param FatTree.vnf_chains "\"100\""
param FatTree.prob_service "\"EQUAL\""

statistic FatTree Proc_SDN:stats
field count 0
field mean -nan
field stddev nan
field min nan
field max nan
field sum 0
field sqrsum 0
attr interpolationmode none
attr source sdn_msg_processed
attr title "Queueing Time - SDN, stats"
statistic FatTree Proc_Core:stats
field count 13055854
field mean 0.23979287215399
field stddev 0.2410332524672
field min 8.527e-09
field max 3.028153479128
field sum 3130700.7290831
field sqrsum 1509225.9873646
attr interpolationmode none
attr source core_msg_processed
attr title "Queueing Time - Core, stats"
statistic FatTree Proc_Agg:stats
field count 28286252
field mean 0.85013425222171
field stddev 0.85661871249992
field min 2.229e-09
field max 8.27799216456
field sum 24047111.692175
field sqrsum 41199600.367081
attr interpolationmode none
attr source agg_msg_processed
attr title "Queueing Time - Aggregate, stats"
statistic FatTree Proc_Edge:stats
field count 29149646
field mean 7168.8027708849
field stddev 4141.9781880515
field min 0.000101729554
field max 14403.404049965
field sum 208968063015.11
field sqrsum 1.9981416522902e+15
attr interpolationmode none
attr source edge_msg_processed
attr title "Queueing Time - Edge, stats"
statistic FatTree Proc_Server:stats
field count 33935053
field mean 0.059777568647383
field stddev 0.059783568682777
field min 4.42e-10
field max 1.065923120897
field sum 2028554.9602601
field sqrsum 242548.5072346
attr interpolationmode none
attr source server_msg_processed
attr title "Queueing Time - Server, stats"
statistic FatTree Proc_VNF:stats
field count 14564646
field mean 0.066583113675512
field stddev 0.066543492505987
field min 9.139e-09
field max 1.107261176176
field sum 969759.48026159
field sqrsum 129062.38385088
attr interpolationmode none
attr source vnf_msg_processed
attr title "Queueing Time - VNF, stats"
statistic FatTree Rec_SDN:stats
field count 1
field mean 0
field stddev -nan
field min 0
field max 0
field sum 0
field sqrsum 0
attr interpolationmode none
attr source sdn_received_count
attr title "Arrival Rate - SDN, stats"
statistic FatTree Rec_Core:stats
field count 4
field mean 35.831249921957
field stddev 0.013038137225325
field min 35.814495026993
field max 35.842620197114
field sum 143.32499968783
field sqrsum 5135.514393858
attr interpolationmode none
attr source core_received_count
attr title "Arrival Rate - Core, stats"
statistic FatTree Rec_Agg:stats
field count 8
field mean 38.815805811297
field stddev 0.018365246948295
field min 38.783797238003
field max 38.847501516774
field sum 310.52644649038
field sqrsum 12053.336607219
attr interpolationmode none
attr source agg_received_count
attr title "Arrival Rate - Aggregate, stats"
statistic FatTree Rec_Edge:stats
field count 8
field mean 47.480128381673
field stddev 0.011209690846306
field min 47.461367290441
field max 47.492390604556
field sum 379.84102705339
field sqrsum 18034.901608722
attr interpolationmode none
attr source edge_received_count
attr title "Arrival Rate - Edge, stats"
statistic FatTree Rec_Server:stats
field count 16
field mean 23.283310796851
field stddev 0.013795386895945
field min 23.260865961513
field max 23.305216346871
field sum 372.53297274961
field sqrsum 8673.8038412944
attr interpolationmode none
attr source server_received_count
attr title "Arrival Rate - Server, stats"
statistic FatTree Rec_VNF:stats
field count 32
field mean 4.996504534428
field stddev 0.0068503855291719
field min 4.9816899688238
field max 5.0111544327598
field sum 159.8881451017
field sqrsum 798.88329676314
attr interpolationmode none
attr source vnf_received_count
attr title "Arrival Rate - VNF, stats"
scalar FatTree Time_In_System:mean 20662.565544707
attr interpolationmode none
attr source completed
attr title "Time in System, mean"

