version 2
run MultipleServices-193-20180401-15:00:19-22821
attr configname MultipleServices
attr datetime 20180401-15:00:19
attr experiment MultipleServices
attr inifile omnetpp.ini
attr iterationvars "$0=3.8, $1=\"100 100.100 100.100.100 100.100.100.100\""
attr iterationvarsf 3.8,100_100.100_100.100.100_100.100.100.100-
attr measurement "$0=3.8, $1=\"100 100.100 100.100.100 100.100.100.100\""
attr network FatTree
attr processid 22821
attr repetition 0
attr replication #0
attr resultdir results
attr runnumber 193
attr seedset 193
param FatTree.vms[*].service_rate 20
param FatTree.servers[*].service_rate 40
param FatTree.edge[*].service_rate 40
param FatTree.aggregate[*].service_rate 40
param FatTree.core[*].service_rate 40
param FatTree.sdn.service_rate 40
param FatTree.vms[*].production_rate 3.8
param FatTree.vnf_chains "\"100 100.100 100.100.100 100.100.100.100\""
param FatTree.k 4
param FatTree.vm_k 2
param FatTree.p_sdn 0
param FatTree.vnf_chains "\"100\""
param FatTree.prob_service "\"EQUAL\""

statistic FatTree Proc_SDN:stats
field count 0
field mean -nan
field stddev nan
field min nan
field max nan
field sum 0
field sqrsum 0
attr interpolationmode none
attr source sdn_msg_processed
attr title "Queueing Time - SDN, stats"
statistic FatTree Proc_Core:stats
field count 13040305
field mean 0.25635192392483
field stddev 0.25609460672061
field min 8.364e-09
field max 3.04572950493
field sum 3342907.2753165
field sqrsum 1712201.8457934
attr interpolationmode none
attr source core_msg_processed
attr title "Queueing Time - Core, stats"
statistic FatTree Proc_Agg:stats
field count 28252095
field mean 1.1706541959365
field stddev 1.177374603211
field min 2.218e-09
field max 11.419689720082
field sum 33073433.555745
field sqrsum 77880916.006889
attr interpolationmode none
attr source agg_msg_processed
attr title "Queueing Time - Aggregate, stats"
statistic FatTree Proc_Edge:stats
field count 28867601
field mean 7847.4287277233
field stddev 4527.5672334534
field min 2.6177625e-05
field max 15735.228058754
field sum 226536441387.85
field sqrsum 2.36948161484e+15
attr interpolationmode none
attr source edge_msg_processed
attr title "Queueing Time - Edge, stats"
statistic FatTree Proc_Server:stats
field count 34046922
field mean 0.060917877142962
field stddev 0.060879755654348
field min 8.61e-10
field max 0.933328256586
field sum 2074066.211492
field sqrsum 252537.33410542
attr interpolationmode none
attr source server_msg_processed
attr title "Queueing Time - Server, stats"
statistic FatTree Proc_VNF:stats
field count 14313465
field mean 0.066503563313942
field stddev 0.066468606475906
field min 1.804e-09
field max 1.162558057249
field sum 951896.42586939
field sqrsum 126542.47094657
attr interpolationmode none
attr source vnf_msg_processed
attr title "Queueing Time - VNF, stats"
statistic FatTree Rec_SDN:stats
field count 1
field mean 0
field stddev -nan
field min 0
field max 0
field sum 0
field sqrsum 0
attr interpolationmode none
attr source sdn_received_count
attr title "Arrival Rate - SDN, stats"
statistic FatTree Rec_Core:stats
field count 4
field mean 36.134534521845
field stddev 0.020238104457922
field min 36.111418980522
field max 36.158204259795
field sum 144.53813808738
field sqrsum 5222.8195691843
attr interpolationmode none
attr source core_received_count
attr title "Arrival Rate - Core, stats"
statistic FatTree Rec_Agg:stats
field count 8
field mean 39.143388549011
field stddev 0.023085241802621
field min 39.100400902126
field max 39.181878890266
field sum 313.14710839209
field sqrsum 12257.642667289
attr interpolationmode none
attr source agg_received_count
attr title "Arrival Rate - Aggregate, stats"
statistic FatTree Rec_Edge:stats
field count 8
field mean 48.416296573292
field stddev 0.028283020776405
field min 48.383338499869
field max 48.448312512449
field sum 387.33037258634
field sqrsum 18753.107790489
attr interpolationmode none
attr source edge_received_count
attr title "Arrival Rate - Edge, stats"
statistic FatTree Rec_Server:stats
field count 16
field mean 23.585885922371
field stddev 0.021218686762752
field min 23.530468337882
field max 23.609275098278
field sum 377.37417475793
field sqrsum 8900.7109893794
attr interpolationmode none
attr source server_received_count
attr title "Arrival Rate - Server, stats"
statistic FatTree Rec_VNF:stats
field count 32
field mean 4.9577997308644
field stddev 0.006185613070257
field min 4.9403525819196
field max 4.9698136746248
field sum 158.64959138766
field sqrsum 786.55408759958
attr interpolationmode none
attr source vnf_received_count
attr title "Arrival Rate - VNF, stats"
scalar FatTree Time_In_System:mean 21664.447375919
attr interpolationmode none
attr source completed
attr title "Time in System, mean"

