version 2
run MultipleServices-70-20180401-10:50:41-22821
attr configname MultipleServices
attr datetime 20180401-10:50:41
attr experiment MultipleServices
attr inifile omnetpp.ini
attr iterationvars "$0=1.4, $1=\"100\""
attr iterationvarsf 1.4,100-
attr measurement "$0=1.4, $1=\"100\""
attr network FatTree
attr processid 22821
attr repetition 0
attr replication #0
attr resultdir results
attr runnumber 70
attr seedset 70
param FatTree.vms[*].service_rate 20
param FatTree.servers[*].service_rate 40
param FatTree.edge[*].service_rate 40
param FatTree.aggregate[*].service_rate 40
param FatTree.core[*].service_rate 40
param FatTree.sdn.service_rate 40
param FatTree.vms[*].production_rate 1.4
param FatTree.vnf_chains "\"100\""
param FatTree.k 4
param FatTree.vm_k 2
param FatTree.p_sdn 0
param FatTree.vnf_chains "\"100\""
param FatTree.prob_service "\"EQUAL\""

statistic FatTree Proc_SDN:stats
field count 0
field mean -nan
field stddev nan
field min nan
field max nan
field sum 0
field sqrsum 0
attr interpolationmode none
attr source sdn_msg_processed
attr title "Queueing Time - SDN, stats"
statistic FatTree Proc_Core:stats
field count 14568211
field mean 0.031935092317022
field stddev 0.031935649759922
field min 1.013e-09
field max 0.472077768282
field sum 465237.16317886
field sqrsum 29715.3011818
attr interpolationmode none
attr source core_msg_processed
attr title "Queueing Time - Core, stats"
statistic FatTree Proc_Agg:stats
field count 31562112
field mean 0.032661815261518
field stddev 0.032646346832916
field min 9.55e-10
field max 0.512602722039
field sum 1030875.8714074
field sqrsum 67308.668965452
attr interpolationmode none
attr source agg_msg_processed
attr title "Queueing Time - Aggregate, stats"
statistic FatTree Proc_Edge:stats
field count 35202008
field mean 0.033871377386409
field stddev 0.03385855222105
field min 8.03e-10
field max 0.576177763001
field sum 1192340.4977274
field sqrsum 80741.850658946
attr interpolationmode none
attr source edge_msg_processed
attr title "Queueing Time - Edge, stats"
statistic FatTree Proc_Server:stats
field count 37024326
field mean 0.028998752917475
field stddev 0.028999633530391
field min 3.533e-09
field max 0.488700372277
field sum 1073659.28161
field sqrsum 62271.45059412
attr interpolationmode none
attr source server_msg_processed
attr title "Queueing Time - Server, stats"
statistic FatTree Proc_VNF:stats
field count 18816217
field mean 0.053773497167877
field stddev 0.053786657788216
field min 1.6671e-08
field max 0.905291170502
field sum 1011813.7915597
field sqrsum 108844.16467003
attr interpolationmode none
attr source vnf_msg_processed
attr title "Queueing Time - VNF, stats"
statistic FatTree Rec_SDN:stats
field count 1
field mean 0
field stddev -nan
field min 0
field max 0
field sum 0
field sqrsum 0
attr interpolationmode none
attr source sdn_received_count
attr title "Arrival Rate - SDN, stats"
statistic FatTree Rec_Core:stats
field count 4
field mean 8.6723891525776
field stddev 0.0048923385770581
field min 8.6654057421129
field max 8.676690161921
field sum 34.68955661031
field sqrsum 300.84140625991
attr interpolationmode none
attr source core_received_count
attr title "Arrival Rate - Core, stats"
statistic FatTree Rec_Agg:stats
field count 8
field mean 9.3943914057394
field stddev 0.0047952757047854
field min 9.3880657967037
field max 9.4009146528514
field sum 75.155131245915
field sqrsum 706.03688003652
attr interpolationmode none
attr source agg_received_count
attr title "Arrival Rate - Aggregate, stats"
statistic FatTree Rec_Edge:stats
field count 8
field mean 10.477796907532
field stddev 0.004654880978453
field min 10.471684414253
field max 10.486612041976
field sum 83.822375260256
field sqrsum 878.27397595933
attr interpolationmode none
attr source edge_received_count
attr title "Arrival Rate - Edge, stats"
statistic FatTree Rec_Server:stats
field count 16
field mean 5.5101034346882
field stddev 0.0037309052141794
field min 5.5045490308573
field max 5.5160834747379
field sum 88.161654955012
field sqrsum 485.78004657022
attr interpolationmode none
attr source server_received_count
attr title "Arrival Rate - Server, stats"
statistic FatTree Rec_VNF:stats
field count 32
field mean 1.4001510281164
field stddev 0.0015579638107716
field min 1.3973916850633
field max 1.4026136164072
field sum 44.804832899725
field sqrsum 62.733608093923
attr interpolationmode none
attr source vnf_received_count
attr title "Arrival Rate - VNF, stats"
scalar FatTree Time_In_System:mean 0.25371333299784
attr interpolationmode none
attr source completed
attr title "Time in System, mean"

