version 2
run MultipleServices-109-20180401-12:08:44-22821
attr configname MultipleServices
attr datetime 20180401-12:08:44
attr experiment MultipleServices
attr inifile omnetpp.ini
attr iterationvars "$0=2.1, $1=\"100 100.100 100.100.100 100.100.100.100 100.100.100.100.100\""
attr iterationvarsf 2.1,100_100.100_100.100.100_100.100.100.100_100.100.100.100.100-
attr measurement "$0=2.1, $1=\"100 100.100 100.100.100 100.100.100.100 100.100.100.100.100\""
attr network FatTree
attr processid 22821
attr repetition 0
attr replication #0
attr resultdir results
attr runnumber 109
attr seedset 109
param FatTree.vms[*].service_rate 20
param FatTree.servers[*].service_rate 40
param FatTree.edge[*].service_rate 40
param FatTree.aggregate[*].service_rate 40
param FatTree.core[*].service_rate 40
param FatTree.sdn.service_rate 40
param FatTree.vms[*].production_rate 2.1
param FatTree.vnf_chains "\"100 100.100 100.100.100 100.100.100.100 100.100.100.100.100\""
param FatTree.k 4
param FatTree.vm_k 2
param FatTree.p_sdn 0
param FatTree.vnf_chains "\"100\""
param FatTree.prob_service "\"EQUAL\""

statistic FatTree Proc_SDN:stats
field count 0
field mean -nan
field stddev nan
field min nan
field max nan
field sum 0
field sqrsum 0
attr interpolationmode none
attr source sdn_msg_processed
attr title "Queueing Time - SDN, stats"
statistic FatTree Proc_Core:stats
field count 13105894
field mean 0.16066963337818
field stddev 0.16101617537892
field min 5.757e-09
field max 2.147396076285
field sum 2105719.1840733
field sqrsum 678111.24686141
attr interpolationmode none
attr source core_msg_processed
attr title "Queueing Time - Core, stats"
statistic FatTree Proc_Agg:stats
field count 28394456
field mean 0.29372825677852
field stddev 0.29464871511784
field min 9.278e-09
field max 4.284568115351
field sum 8340254.0630545
field sqrsum 4914914.2570727
attr interpolationmode none
attr source agg_msg_processed
attr title "Queueing Time - Aggregate, stats"
statistic FatTree Proc_Edge:stats
field count 31030022
field mean 2023.4329785574
field stddev 1170.6431174598
field min 1.8602276e-05
field max 4154.1366513608
field sum 62787169840.162
field sqrsum 1.6956933558477e+14
attr interpolationmode none
attr source edge_msg_processed
attr title "Queueing Time - Edge, stats"
statistic FatTree Proc_Server:stats
field count 33407058
field mean 0.054120095948377
field stddev 0.054156516138401
field min 5.3e-10
field max 0.820008918502
field sum 1807993.184313
field sqrsum 195829.26550793
attr interpolationmode none
attr source server_msg_processed
attr title "Queueing Time - Server, stats"
statistic FatTree Proc_VNF:stats
field count 16312029
field mean 0.067852279352494
field stddev 0.067957460487995
field min 2.352e-09
field max 1.221966998824
field sum 1106808.348514
field sqrsum 150431.94506677
attr interpolationmode none
attr source vnf_msg_processed
attr title "Queueing Time - VNF, stats"
statistic FatTree Rec_SDN:stats
field count 1
field mean 0
field stddev -nan
field min 0
field max 0
field sum 0
field sqrsum 0
attr interpolationmode none
attr source sdn_received_count
attr title "Arrival Rate - SDN, stats"
statistic FatTree Rec_Core:stats
field count 4
field mean 33.786971836867
field stddev 0.0094493476368995
field min 33.775899338595
field max 33.798791954348
field sum 135.14788734747
field sqrsum 4566.2381314916
attr interpolationmode none
attr source core_received_count
attr title "Arrival Rate - Core, stats"
statistic FatTree Rec_Agg:stats
field count 8
field mean 36.600550363894
field stddev 0.015342510540404
field min 36.577192419633
field max 36.621956764222
field sum 292.80440291115
field sqrsum 10716.803943268
attr interpolationmode none
attr source agg_received_count
attr title "Arrival Rate - Aggregate, stats"
statistic FatTree Rec_Edge:stats
field count 8
field mean 41.742389119967
field stddev 0.025048915189582
field min 41.702787214911
field max 41.775466113934
field sum 333.93911295974
field sqrsum 13939.420787679
attr interpolationmode none
attr source edge_received_count
attr title "Arrival Rate - Edge, stats"
statistic FatTree Rec_Server:stats
field count 16
field mean 21.530842833824
field stddev 0.015040546363529
field min 21.498568886006
field max 21.556099473073
field sum 344.49348534118
field sqrsum 7417.2384834275
attr interpolationmode none
attr source server_received_count
attr title "Arrival Rate - Server, stats"
statistic FatTree Rec_VNF:stats
field count 32
field mean 5.2565480335798
field stddev 0.0079223249368769
field min 5.2378407963934
field max 5.2706226096729
field sum 168.20953707455
field sqrsum 884.20345699883
attr interpolationmode none
attr source vnf_received_count
attr title "Arrival Rate - VNF, stats"
scalar FatTree Time_In_System:mean 9529.9760496742
attr interpolationmode none
attr source completed
attr title "Time in System, mean"

