version 2
run MultipleServices-177-20180401-14:27:06-22821
attr configname MultipleServices
attr datetime 20180401-14:27:06
attr experiment MultipleServices
attr inifile omnetpp.ini
attr iterationvars "$0=3.5, $1=\"100 100.100 100.100.100\""
attr iterationvarsf 3.5,100_100.100_100.100.100-
attr measurement "$0=3.5, $1=\"100 100.100 100.100.100\""
attr network FatTree
attr processid 22821
attr repetition 0
attr replication #0
attr resultdir results
attr runnumber 177
attr seedset 177
param FatTree.vms[*].service_rate 20
param FatTree.servers[*].service_rate 40
param FatTree.edge[*].service_rate 40
param FatTree.aggregate[*].service_rate 40
param FatTree.core[*].service_rate 40
param FatTree.sdn.service_rate 40
param FatTree.vms[*].production_rate 3.5
param FatTree.vnf_chains "\"100 100.100 100.100.100\""
param FatTree.k 4
param FatTree.vm_k 2
param FatTree.p_sdn 0
param FatTree.vnf_chains "\"100\""
param FatTree.prob_service "\"EQUAL\""

statistic FatTree Proc_SDN:stats
field count 0
field mean -nan
field stddev nan
field min nan
field max nan
field sum 0
field sqrsum 0
attr interpolationmode none
attr source sdn_msg_processed
attr title "Queueing Time - SDN, stats"
statistic FatTree Proc_Core:stats
field count 12966015
field mean 0.18875953588361
field stddev 0.18907497405635
field min 5.01e-10
field max 2.400245828243
field sum 2447458.9736599
field sqrsum 925507.7382827
attr interpolationmode none
attr source core_msg_processed
attr title "Queueing Time - Core, stats"
statistic FatTree Proc_Agg:stats
field count 28093589
field mean 0.41750972500659
field stddev 0.41837222664951
field min 8.149e-09
field max 5.58296410414
field sum 11729346.617838
field sqrsum 9814486.4473384
attr interpolationmode none
attr source agg_msg_processed
attr title "Queueing Time - Aggregate, stats"
statistic FatTree Proc_Edge:stats
field count 29882749
field mean 4493.6094870935
field stddev 2594.4160623008
field min 0.000251303311
field max 9095.6299570568
field sum 134281404406.83
field sqrsum 8.0454881132144e+14
attr interpolationmode none
attr source edge_msg_processed
attr title "Queueing Time - Edge, stats"
statistic FatTree Proc_Server:stats
field count 33288379
field mean 0.056426979464997
field stddev 0.056370082756201
field min 5.24e-10
field max 1.023464984311
field sum 1878362.6782561
field sqrsum 211767.02382364
attr interpolationmode none
attr source server_msg_processed
attr title "Queueing Time - Server, stats"
statistic FatTree Proc_VNF:stats
field count 15351810
field mean 0.06728007272023
field stddev 0.067296589152539
field min 3.132e-09
field max 1.099863588968
field sum 1032870.8931872
field sqrsum 139017.37595189
attr interpolationmode none
attr source vnf_msg_processed
attr title "Queueing Time - VNF, stats"
statistic FatTree Rec_SDN:stats
field count 1
field mean 0
field stddev -nan
field min 0
field max 0
field sum 0
field sqrsum 0
attr interpolationmode none
attr source sdn_received_count
attr title "Arrival Rate - SDN, stats"
statistic FatTree Rec_Core:stats
field count 4
field mean 34.71196265979
field stddev 0.029324869749025
field min 34.683285123305
field max 34.749099962453
field sum 138.84785063916
field sqrsum 4819.6839866227
attr interpolationmode none
attr source core_received_count
attr title "Arrival Rate - Core, stats"
statistic FatTree Rec_Agg:stats
field count 8
field mean 37.605332533858
field stddev 0.013052688696502
field min 37.57850624051
field max 37.618149347331
field sum 300.84266027087
field sqrsum 11313.289472465
attr interpolationmode none
attr source agg_received_count
attr title "Arrival Rate - Aggregate, stats"
statistic FatTree Rec_Edge:stats
field count 8
field mean 44.258616036982
field stddev 0.03029025183383
field min 44.201935603593
field max 44.284209506811
field sum 354.06892829586
field sqrsum 15670.607170568
attr interpolationmode none
attr source edge_received_count
attr title "Arrival Rate - Edge, stats"
statistic FatTree Rec_Server:stats
field count 16
field mean 22.279435403878
field stddev 0.015333524009116
field min 22.244666032602
field max 22.301217963214
field sum 356.47096646204
field sqrsum 7941.9753974033
attr interpolationmode none
attr source server_received_count
attr title "Arrival Rate - Server, stats"
statistic FatTree Rec_VNF:stats
field count 32
field mean 5.1373750569147
field stddev 0.0061257254021487
field min 5.1194221480582
field max 5.1473607935736
field sum 164.39600182127
field sqrsum 844.56508247296
attr interpolationmode none
attr source vnf_received_count
attr title "Arrival Rate - VNF, stats"
scalar FatTree Time_In_System:mean 13330.761997413
attr interpolationmode none
attr source completed
attr title "Time in System, mean"

