version 2
run Test-18-20180402-15:55:33-19087
attr configname Test
attr datetime 20180402-15:55:33
attr experiment Test
attr inifile omnetpp.ini
attr iterationvars $0=1.8
attr iterationvarsf 1.8-
attr measurement $0=1.8
attr network FatTree
attr processid 19087
attr repetition 0
attr replication #0
attr resultdir results
attr runnumber 18
attr seedset 18
param FatTree.vms[*].service_rate 20
param FatTree.servers[*].service_rate 40
param FatTree.edge[*].service_rate 40
param FatTree.aggregate[*].service_rate 40
param FatTree.core[*].service_rate 40
param FatTree.sdn.service_rate 40
param FatTree.k 2
param FatTree.vm_k 2
param FatTree.p_sdn 0
param FatTree.vnf_chains "\"100\""
param FatTree.vms[*].production_rate 1.8
param FatTree.prob_service "\"EQUAL\""

scalar FatTree Time_In_System:mean 0.19859940872789
attr interpolationmode none
attr source completed
attr title "Time in System, mean"

