version 2
run DifferentLengths-67-20200410-21:55:57-13023
attr configname DifferentLengths
attr datetime 20200410-21:55:57
attr experiment DifferentLengths
attr inifile omnetpp.ini
attr iterationvars "$0=\"100.100.100.100\", $1=32"
attr iterationvarsf 100.100.100.100,32-
attr measurement "$0=\"100.100.100.100\", $1=32"
attr network FatTree
attr processid 13023
attr repetition 0
attr replication #0
attr resultdir results
attr runnumber 67
attr seedset 67
param FatTree.vms[*].service_rate 82
param FatTree.servers[*].service_rate 82
param FatTree.edge[*].service_rate 82
param FatTree.aggregate[*].service_rate 82
param FatTree.core[*].service_rate 82
param FatTree.sdn.service_rate 82
param FatTree.k 8
param FatTree.vm_k 2
param FatTree.p_sdn 0
param FatTree.vnf_chains "\"100.100.100.100\""
param FatTree.vms[*].production_rate 32
param FatTree.prob_service "\"EQUAL\""

scalar FatTree Time_In_System:mean 0.15502466558743
attr interpolationmode none
attr source completed
attr title "Time in System, mean"

