version 2
run DifferentLengths-188-20200410-23:56:42-13023
attr configname DifferentLengths
attr datetime 20200410-23:56:42
attr experiment DifferentLengths
attr inifile omnetpp.ini
attr iterationvars "$0=\"100.100.100.100.100.100.100.100\", $1=70"
attr iterationvarsf 100.100.100.100.100.100.100.100,70-
attr measurement "$0=\"100.100.100.100.100.100.100.100\", $1=70"
attr network FatTree
attr processid 13023
attr repetition 0
attr replication #0
attr resultdir results
attr runnumber 188
attr seedset 188
param FatTree.vms[*].service_rate 82
param FatTree.servers[*].service_rate 82
param FatTree.edge[*].service_rate 82
param FatTree.aggregate[*].service_rate 82
param FatTree.core[*].service_rate 82
param FatTree.sdn.service_rate 82
param FatTree.k 8
param FatTree.vm_k 2
param FatTree.p_sdn 0
param FatTree.vnf_chains "\"100.100.100.100.100.100.100.100\""
param FatTree.vms[*].production_rate 70
param FatTree.prob_service "\"EQUAL\""

scalar FatTree Time_In_System:mean 195.65707539056
attr interpolationmode none
attr source completed
attr title "Time in System, mean"

