version 2
run IncreasingNumPorts-187-20200410-16:15:01-12344
attr configname IncreasingNumPorts
attr datetime 20200410-16:15:01
attr experiment IncreasingNumPorts
attr inifile omnetpp.ini
attr iterationvars "$0=16, $1=68"
attr iterationvarsf 16,68-
attr measurement "$0=16, $1=68"
attr network FatTree
attr processid 12344
attr repetition 0
attr replication #0
attr resultdir results
attr runnumber 187
attr seedset 187
param FatTree.vms[*].service_rate 82
param FatTree.servers[*].service_rate 82
param FatTree.edge[*].service_rate 82
param FatTree.aggregate[*].service_rate 82
param FatTree.core[*].service_rate 82
param FatTree.sdn.service_rate 82
param FatTree.k 16
param FatTree.vm_k 2
param FatTree.p_sdn 0
param FatTree.vnf_chains "\"100\""
param FatTree.vms[*].production_rate 68
param FatTree.prob_service "\"EQUAL\""

scalar FatTree Time_In_System:mean 0.041816717282418
attr interpolationmode none
attr source completed
attr title "Time in System, mean"

