version 2
run IncreasingSDN-152-20200410-20:49:02-12818
attr configname IncreasingSDN
attr datetime 20200410-20:49:02
attr experiment IncreasingSDN
attr inifile omnetpp.ini
attr iterationvars "$0=100, $1=100"
attr iterationvarsf 100,100-
attr measurement "$0=100, $1=100"
attr network FatTree
attr processid 12818
attr repetition 0
attr replication #0
attr resultdir results
attr runnumber 152
attr seedset 152
param FatTree.vms[*].service_rate 82
param FatTree.servers[*].service_rate 82
param FatTree.edge[*].service_rate 82
param FatTree.aggregate[*].service_rate 82
param FatTree.core[*].service_rate 82
param FatTree.sdn.service_rate 82
param FatTree.k 8
param FatTree.vm_k 2
param FatTree.p_sdn 100
param FatTree.vnf_chains "\"100\""
param FatTree.vms[*].production_rate 100
param FatTree.prob_service "\"EQUAL\""

scalar FatTree Time_In_System:mean 654.58544611793
attr interpolationmode none
attr source completed
attr title "Time in System, mean"

