version 2
run IncreasingNumPorts-207-20200410-16:34:17-12344
attr configname IncreasingNumPorts
attr datetime 20200410-16:34:17
attr experiment IncreasingNumPorts
attr inifile omnetpp.ini
attr iterationvars "$0=20, $1=6"
attr iterationvarsf 20,6-
attr measurement "$0=20, $1=6"
attr network FatTree
attr processid 12344
attr repetition 0
attr replication #0
attr resultdir results
attr runnumber 207
attr seedset 207
param FatTree.vms[*].service_rate 82
param FatTree.servers[*].service_rate 82
param FatTree.edge[*].service_rate 82
param FatTree.aggregate[*].service_rate 82
param FatTree.core[*].service_rate 82
param FatTree.sdn.service_rate 82
param FatTree.k 20
param FatTree.vm_k 2
param FatTree.p_sdn 0
param FatTree.vnf_chains "\"100\""
param FatTree.vms[*].production_rate 6
param FatTree.prob_service "\"EQUAL\""

scalar FatTree Time_In_System:mean 0.017101041414297
attr interpolationmode none
attr source completed
attr title "Time in System, mean"

