version 2
run IncreasingNumPorts-268-20200410-17:34:52-12344
attr configname IncreasingNumPorts
attr datetime 20200410-17:34:52
attr experiment IncreasingNumPorts
attr inifile omnetpp.ini
attr iterationvars "$0=24, $1=26"
attr iterationvarsf 24,26-
attr measurement "$0=24, $1=26"
attr network FatTree
attr processid 12344
attr repetition 0
attr replication #0
attr resultdir results
attr runnumber 268
attr seedset 268
param FatTree.vms[*].service_rate 82
param FatTree.servers[*].service_rate 82
param FatTree.edge[*].service_rate 82
param FatTree.aggregate[*].service_rate 82
param FatTree.core[*].service_rate 82
param FatTree.sdn.service_rate 82
param FatTree.k 24
param FatTree.vm_k 2
param FatTree.p_sdn 0
param FatTree.vnf_chains "\"100\""
param FatTree.vms[*].production_rate 26
param FatTree.prob_service "\"EQUAL\""

scalar FatTree Time_In_System:mean 0.01915845593591
attr interpolationmode none
attr source completed
attr title "Time in System, mean"

