version 2
run MultipleServices-150-20200414-19:37:43-3611
attr configname MultipleServices
attr datetime 20200414-19:37:43
attr experiment MultipleServices
attr inifile omnetpp.ini
attr iterationvars "$0=\"100.100.100 100.100.100 100.100.100 100.100.100\", $1=96"
attr iterationvarsf 100.100.100_100.100.100_100.100.100_100.100.100,96-
attr measurement "$0=\"100.100.100 100.100.100 100.100.100 100.100.100\", $1=96"
attr network FatTree
attr processid 3611
attr repetition 0
attr replication #0
attr resultdir results
attr runnumber 150
attr seedset 150
param FatTree.vms[*].service_rate 82
param FatTree.servers[*].service_rate 82
param FatTree.edge[*].service_rate 82
param FatTree.aggregate[*].service_rate 82
param FatTree.core[*].service_rate 82
param FatTree.sdn.service_rate 82
param FatTree.k 8
param FatTree.vm_k 2
param FatTree.p_sdn 0
param FatTree.vnf_chains "\"100.100.100 100.100.100 100.100.100 100.100.100\""
param FatTree.vms[*].production_rate 96
param FatTree.prob_service "\"EQUAL\""

scalar FatTree Time_In_System:mean 198.65193802545
attr interpolationmode none
attr source completed
attr title "Time in System, mean"

