version 2
run MultipleServices-115-20200414-19:02:00-3611
attr configname MultipleServices
attr datetime 20200414-19:02:00
attr experiment MultipleServices
attr inifile omnetpp.ini
attr iterationvars "$0=\"100.100.100 100.100.100 100.100.100 100.100.100\", $1=26"
attr iterationvarsf 100.100.100_100.100.100_100.100.100_100.100.100,26-
attr measurement "$0=\"100.100.100 100.100.100 100.100.100 100.100.100\", $1=26"
attr network FatTree
attr processid 3611
attr repetition 0
attr replication #0
attr resultdir results
attr runnumber 115
attr seedset 115
param FatTree.vms[*].service_rate 82
param FatTree.servers[*].service_rate 82
param FatTree.edge[*].service_rate 82
param FatTree.aggregate[*].service_rate 82
param FatTree.core[*].service_rate 82
param FatTree.sdn.service_rate 82
param FatTree.k 8
param FatTree.vm_k 2
param FatTree.p_sdn 0
param FatTree.vnf_chains "\"100.100.100 100.100.100 100.100.100 100.100.100\""
param FatTree.vms[*].production_rate 26
param FatTree.prob_service "\"EQUAL\""

scalar FatTree Time_In_System:mean 0.097303293853526
attr interpolationmode none
attr source completed
attr title "Time in System, mean"

