version 2
run FilteringVNFs-76-20191029-14:10:25-14683
attr configname FilteringVNFs
attr datetime 20191029-14:10:25
attr experiment FilteringVNFs
attr inifile omnetpp.ini
attr iterationvars "$0=12, $1=\"100.20\""
attr iterationvarsf 12,100.20-
attr measurement "$0=12, $1=\"100.20\""
attr network FatTree
attr processid 14683
attr repetition 0
attr replication #0
attr resultdir results
attr runnumber 76
attr seedset 76
param FatTree.vms[*].service_rate 20
param FatTree.servers[*].service_rate 40
param FatTree.edge[*].service_rate 40
param FatTree.aggregate[*].service_rate 40
param FatTree.core[*].service_rate 40
param FatTree.sdn.service_rate 40
param FatTree.k 4
param FatTree.vm_k 2
param FatTree.p_sdn 0
param FatTree.vms[*].production_rate 12
param FatTree.vnf_chains "\"100.20\""
param FatTree.prob_service "\"EQUAL\""

scalar FatTree Time_In_System:mean 1.7447178801982
attr interpolationmode none
attr source completed
attr title "Time in System, mean"

