version 2
run IncreasingSDN-20-20191029-16:51:22-23953
attr configname IncreasingSDN
attr datetime 20191029-16:51:22
attr experiment IncreasingSDN
attr inifile omnetpp.ini
attr iterationvars "$0=20, $1=10"
attr iterationvarsf 20,10-
attr measurement "$0=20, $1=10"
attr network FatTree
attr processid 23953
attr repetition 0
attr replication #0
attr resultdir results
attr runnumber 20
attr seedset 20
param FatTree.vms[*].service_rate 20
param FatTree.servers[*].service_rate 40
param FatTree.edge[*].service_rate 40
param FatTree.aggregate[*].service_rate 40
param FatTree.core[*].service_rate 40
param FatTree.sdn.service_rate 40
param FatTree.k 4
param FatTree.vm_k 2
param FatTree.vnf_chains "\"100\""
param FatTree.vms[*].production_rate 20
param FatTree.p_sdn 10
param FatTree.prob_service "\"EQUAL\""

scalar FatTree Time_In_System:mean 3262.4080779347
attr interpolationmode none
attr source completed
attr title "Time in System, mean"

