version 2
run LowNumPorts-0-20191029-17:08:54-26863
attr configname LowNumPorts
attr datetime 20191029-17:08:54
attr experiment LowNumPorts
attr inifile omnetpp.ini
attr iterationvars $0=0
attr iterationvarsf 0-
attr measurement $0=0
attr network FatTree
attr processid 26863
attr repetition 0
attr replication #0
attr resultdir results
attr runnumber 0
attr seedset 0
param FatTree.vms[*].service_rate 20
param FatTree.servers[*].service_rate 40
param FatTree.edge[*].service_rate 40
param FatTree.aggregate[*].service_rate 40
param FatTree.core[*].service_rate 40
param FatTree.sdn.service_rate 40
param FatTree.vm_k 2
param FatTree.p_sdn 0
param FatTree.vnf_chains "\"100\""
param FatTree.vms[*].production_rate 0
param FatTree.k 2
param FatTree.prob_service "\"EQUAL\""

scalar FatTree Time_In_System:mean -nan
attr interpolationmode none
attr source completed
attr title "Time in System, mean"

