version 2
run MultipleServices-46-20191029-16:03:02-20630
attr configname MultipleServices
attr datetime 20191029-16:03:02
attr experiment MultipleServices
attr inifile omnetpp.ini
attr iterationvars "$0=9, $1=\"100 100.100\""
attr iterationvarsf 9,100_100.100-
attr measurement "$0=9, $1=\"100 100.100\""
attr network FatTree
attr processid 20630
attr repetition 0
attr replication #0
attr resultdir results
attr runnumber 46
attr seedset 46
param FatTree.vms[*].service_rate 20
param FatTree.servers[*].service_rate 40
param FatTree.edge[*].service_rate 40
param FatTree.aggregate[*].service_rate 40
param FatTree.core[*].service_rate 40
param FatTree.sdn.service_rate 40
param FatTree.k 4
param FatTree.vm_k 2
param FatTree.p_sdn 0
param FatTree.vms[*].production_rate 9
param FatTree.vnf_chains "\"100 100.100\""
param FatTree.prob_service "\"EQUAL\""

scalar FatTree Time_In_System:mean 4.5182053890237
attr interpolationmode none
attr source completed
attr title "Time in System, mean"

