version 2
run General-0-20180313-18:44:55-14567
attr configname General
attr datetime 20180313-18:44:55
attr experiment General
attr inifile omnetpp.ini
attr iterationvars ""
attr iterationvarsf ""
attr measurement ""
attr network FatTree
attr processid 14567
attr repetition 0
attr replication #0
attr resultdir results
attr runnumber 0
attr seedset 0
param FatTree.servers[*].production_rate exponential(2s)
param FatTree.servers[*].service_rate exponential(.25s)
param FatTree.edge[*].service_rate exponential(.25s)
param FatTree.aggregate[*].service_rate exponential(.25s)
param FatTree.core[*].service_rate exponential(.25s)

statistic FatTree Hop_Count:stats
field count 2802529
field mean 6
field stddev 0
field min 6
field max 6
field sum 16815174
field sqrsum 100891044
attr interpolationmode none
attr source msg_hop_count
attr title "Hop Count, stats"
statistic FatTree Proc_Core:stats
field count 2802530
field mean 0.33369474728343
field stddev 0.33355732240616
field min 6.345e-09
field max 4.440254017588
field sum 935189.54010424
field sqrsum 623878.5795458
attr interpolationmode none
attr source core_msg_processed
attr title "Queueing Time - Core, stats"
statistic FatTree Proc_Agg:stats
field count 5605060
field mean 0.33318685890195
field stddev 0.33280127066388
field min 4.7148e-08
field max 5.420725735082
field sum 1867532.335357
field sqrsum 1243034.9910194
attr interpolationmode none
attr source agg_msg_processed
attr title "Queueing Time - Aggregate, stats"
statistic FatTree Proc_Edge:stats
field count 5605061
field mean 0.33319150819481
field stddev 0.33277601872305
field min 1.3039e-08
field max 5.309008514869
field sum 1867558.7281139
field sqrsum 1242958.3734167
attr interpolationmode none
attr source edge_msg_processed
attr title "Queueing Time - Edge, stats"
statistic FatTree Proc_Server:stats
field count 2802529
field mean 0.28580212376931
field stddev 0.28573899474226
field min 3.609e-09
field max 4.069911245443
field sum 800968.74012509
field sqrsum 457735.93476871
attr interpolationmode none
attr source server_msg_processed
attr title "Queueing Time - Server, stats"
statistic FatTree Rec_Core:stats
field count 1
field mean 0.99997054217008
field stddev -nan
field min 0.99997054217008
field max 0.99997054217008
field sum 0.99997054217008
field sqrsum 0.99994108520793
attr interpolationmode none
attr source core_received_count
attr title "Arrival Rate - Core, stats"
statistic FatTree Rec_Agg:stats
field count 2
field mean 0.99997072057505
field stddev 2.5200150199663e-07
field min 0.99997054217008
field max 0.99997089898002
field sum 1.9999414411501
field sqrsum 1.9998828840148
attr interpolationmode none
attr source agg_received_count
attr title "Arrival Rate - Aggregate, stats"
statistic FatTree Rec_Edge:stats
field count 2
field mean 0.99997107738498
field stddev 2.5244167962815e-07
field min 0.99997089898002
field max 0.99997125578995
field sum 1.99994215477
field sqrsum 1.999884311213
attr interpolationmode none
attr source edge_received_count
attr title "Arrival Rate - Edge, stats"
statistic FatTree Rec_Server:stats
field count 2
field mean 0.49998509268007
field stddev 0.00034994387742101
field min 0.49973764499138
field max 0.50023254036877
field sum 0.99997018536015
field sqrsum 0.49997030826532
attr interpolationmode none
attr source server_received_count
attr title "Arrival Rate - Server, stats"
statistic FatTree Time_In_System:stats
field count 2802529
field mean 1.9522539050179
field stddev 0.79700200553376
field min 0.065108651993
field max 8.506928857533
field sum 5471248.184176
field sqrsum 12461465.600423
attr interpolationmode none
attr source completed
attr title "Time in System, stats"

