version 2
run General-0-20180313-18:20:38-11916
attr configname General
attr datetime 20180313-18:20:38
attr experiment General
attr inifile omnetpp.ini
attr iterationvars ""
attr iterationvarsf ""
attr measurement ""
attr network FatTree
attr processid 11916
attr repetition 0
attr replication #0
attr resultdir results
attr runnumber 0
attr seedset 0
param FatTree.servers[*].production_rate exponential(3s)
param FatTree.servers[*].service_rate exponential(.5s)
param FatTree.edge[*].service_rate exponential(.5s)
param FatTree.aggregate[*].service_rate exponential(.5s)
param FatTree.core[*].service_rate exponential(.5s)

statistic FatTree Hop_Count:stats
field count 8392235
field mean 5.4673137727912
field stddev 1.1463211084634
field min 2
field max 6
field sum 45882982
field sqrsum 261884492
attr interpolationmode none
attr source msg_hop_count
attr title "Hop Count, stats"

statistic FatTree Proc_Core:stats
field count 6715576
field mean 1.0715556544812
field stddev 1.0708484340991
field min 4.3656e-08
field max 15.591759875529
field sum 7196113.4358984
field sqrsum 15411895.821013
attr interpolationmode none
attr source core_msg_processed
attr title "Queueing Time - Core, stats"

statistic FatTree Proc_Agg:stats
field count 14549298
field mean 1.1826126513043
field stddev 1.1827574681395
field min 4.9011e-08
field max 17.104690398962
field sum 17206183.882396
field sqrsum 40701483.876383
attr interpolationmode none
attr source agg_msg_processed
attr title "Queueing Time - Aggregate, stats"

statistic FatTree Proc_Edge:stats
field count 16225963
field mean 1.4071847797684
field stddev 1.406952276514
field min 1.8545e-07
field max 20.301583580758
field sum 22832928.170685
field sqrsum 64249679.436075
attr interpolationmode none
attr source edge_msg_processed
attr title "Queueing Time - Edge, stats"

statistic FatTree Proc_Server:stats
field count 8392235
field mean 0.59998344673837
field stddev 0.60020039143687
field min 1.03842e-07
field max 8.952696464394
field sum 5035202.0811384
field sqrsum 6044260.554866
attr interpolationmode none
attr source server_msg_processed
attr title "Queueing Time - Server, stats"

statistic FatTree Rec_Core:stats
field count 4
field mean 1.0667796035079
field stddev 0.00033876485308241
field min 1.0664715906888
field max 1.0672480562171
field sum 4.2671184140314
field sqrsum 4.5520752341264
attr interpolationmode none
attr source core_received_count
attr title "Arrival Rate - Core, stats"

statistic FatTree Rec_Agg:stats
field count 8
field mean 1.1555884042871
field stddev 0.00038935175522018
field min 1.1550954090402
field max 1.1561381094755
field sum 9.2447072342971
field sqrsum 10.683077542147
attr interpolationmode none
attr source agg_received_count
attr title "Arrival Rate - Aggregate, stats"

statistic FatTree Rec_Edge:stats
field count 8
field mean 1.2887605820881
field stddev 0.0008836509496532
field min 1.2872343380627
field max 1.2901006523002
field sum 10.310084656705
field sqrsum 13.287236169425
attr interpolationmode none
attr source edge_received_count
attr title "Arrival Rate - Edge, stats"

statistic FatTree Rec_Server:stats
field count 16
field mean 0.33327956011505
field stddev 0.00057423755624277
field min 0.33239968234065
field max 0.33454163430129
field sum 5.3324729618408
field sqrsum 1.7772091892792
attr interpolationmode none
attr source server_received_count
attr title "Arrival Rate - Server, stats"

statistic FatTree Time_In_System:stats
field count 8392235
field mean 6.2284093382139
field stddev 3.0605619830746
field min 0.001195866978
field max 33.939405361958
field sum 52270274.842486
field sqrsum 404171056.58884
attr interpolationmode none
attr source completed
attr title "Time in System, stats"

